283

C       4.668163495000000    -10.373404179500000      5.542486810500000
C       5.395904669800000     -9.671900538799999      4.386850652100000
O       4.469101691500000     -9.515618208099999      3.261954812100000
C       5.915313202300000     -8.252459079399999      4.710593358300000
O       7.104851624700000     -8.043120469700000      3.935327469300000
C       4.726780194800000     -7.370459482400000      4.296243663300000
C       4.147029375300000     -8.102076362100000      3.081003253900000
N       2.694943065100000     -7.957882181800000      2.938338407500000
C       1.729525673700000     -8.040297517699999      3.934140590100000
N       0.492300163500000     -7.892381496500000      3.491964356600000
C       0.646965950900000     -7.703797773200000      2.119119988400000
C      -0.292259080500000     -7.498939255500000      1.084859175800000
N      -1.626140739400000     -7.436965427800000      1.301471973000000
N       0.189937790000000     -7.360180147200000     -0.178274246200000
C       1.525759056000000     -7.410279523100000     -0.394416231900000
N       2.497240998200000     -7.605654829300000      0.509436234800000
C       1.999721073900000     -7.749415642200000      1.751237241000000
H       5.369447817400000    -10.615161176999999      6.351894024000000
H       4.208231589100000    -11.300645085299999      5.184808572600000
H       6.230021849000000    -10.286006793900000      4.031223027000000
H       4.582333031200000     -7.753509245800000      2.140911321800000
H       4.000939519800000     -7.326260081100000      5.114193874400000
H       5.042209167600000     -6.354306212500000      4.082013263400000
H       6.141497639100000     -8.127524191899999      5.778164183600000
H       1.998209369100000     -8.220264674599999      4.964631256700000
H      -1.959709269800000     -7.462401736700000      2.254459299600000
H      -2.286129713600000     -7.333586786600000      0.515162657700000
H       1.828085445800000     -7.250639585400000     -1.426441446500000
P       7.825338735500000     -6.509594527700000      3.879429841500000
O       9.283358967100000     -6.771206956300000      3.728062617400000
O       7.197380128400000     -5.653011945500000      4.933019751000000
O       7.188692601800000     -5.970916266600000      2.436678192300000
C       7.682163591100000     -6.561734524200000      1.204879869600000
C       7.320611378500000     -5.704984765300000     -0.008448367000000
O       5.860463367200000     -5.688461056700000     -0.204790579900000
C       7.751180115400000     -4.223975973700000      0.059134738600000
O       8.018754639499999     -3.778028420600000     -1.303764474800000
C       6.511868812700000     -3.564160586300000      0.660418630100000
C       5.376523493600000     -4.335234817100000     -0.019686170600000
N       4.128682811300000     -4.361411023900000      0.751802144500000
C       3.999412100300000     -4.540820437500000      2.125092467800000
N       2.742461518900000     -4.523203362900000      2.541422589000000
C       2.000729499200000     -4.333141224900000      1.376277275400000
C       0.616029520900000     -4.191065091100000      1.163301127000000
N      -0.277016363200000     -4.186358714500000      2.186555048500000
N       0.178708465600000     -4.025017746800000     -0.114632477300000
C       1.089670471000000     -4.014694482400000     -1.119152627700000
N       2.425914944300000     -4.101672569700000     -1.025812060000000
C       2.835049340500000     -4.250423956800000      0.251149983600000
H       8.772757444800000     -6.671254919900000      1.264171645200000
H       7.233691144500000     -7.557916889500000      1.080458244700000
H       7.760911696200000     -6.172393349100000     -0.898038557600000
H       5.118561633000000     -3.905019341200000     -0.990953097300000
H       6.514577833100000     -3.733810002200000      1.737906515900000
H       6.489298486400000     -2.502510009200000      0.459352231400000
H       8.640431112500000     -4.071977329900000      0.677788144400000
H       4.870801419400000     -4.688655734900000      2.746657247900000
H       0.043786923100000     -4.524201689200000      3.084319852400000
H      -1.284164631900000     -4.112838380700000      1.979302510500000
H       0.669121461500000     -3.931931563200000     -2.118216839100000
P       8.206475151599999     -2.153437529500000     -1.653100768300000
O       8.970872983500000     -2.103108880100000     -2.931789788500000
O       8.518173381400000     -1.395420955900000     -0.403590636800000
O       6.605346870600000     -1.715511874000000     -1.980553964100000
C       6.008959594700000     -2.051965929000000     -3.249789732500000
C       5.635740378500000     -0.803504719100000     -4.043819350200000
O       4.569343330700000     -0.057424100900000     -3.315087370800000
C       6.790549800700000      0.207989760700000     -4.291348202900000
O       6.719198915000000      0.607568756200000     -5.693294992800000
C       6.497475050000000      1.313082747500000     -3.265924143200000
C       4.973806940400000      1.347696078300000     -3.244312592300000
N       4.392911999300000      1.947427136500000     -2.036103538600000
C       5.032964394700000      2.306898393400000     -0.849531087300000
N       4.208773838400000      2.749856104400000      0.084076046800000
C       2.953027237000000      2.671414283700000     -0.506690468500000
C       1.660336784200000      2.872948847000000      0.014531500500000
N       1.425977922100000      3.209581052300000      1.313327869800000
N       0.609171694600000      2.724917891300000     -0.833731478300000
C       0.836198044900000      2.350108393100000     -2.112230423700000
N       2.011263470200000      2.039906929600000     -2.682720710300000
C       3.041792463600000      2.208526259100000     -1.831133732400000
H       6.704029924600000     -2.647460912800000     -3.854289397500000
H       5.102899716700000     -2.645037814300000     -3.059532937900000
H       5.217133586500000     -1.104456667000000     -5.011475425800000
H       4.554516068200000      1.878698576400000     -4.104639648900000
H       6.879491969700000      0.951107165800000     -2.306410631500000
H       6.961759427700000      2.260591835900000     -3.539922693700000
H       7.762990306400000     -0.256281987500000     -4.109967662300000
H       6.102263027100000      2.214803647700000     -0.739057421600000
H       2.213626990800000      3.111572249800000      1.942817470200000
H       0.481733026800000      3.039028435800000      1.691759699700000
H      -0.052961020000000      2.287107664100000     -2.733560153900000
P       7.132915529500000      2.084118016800000     -6.340127593400000
O       7.478889877600000      1.815776490100000     -7.766680865000000
O       7.941990181500000      2.905828209000000     -5.395805570700000
O       5.590754287300000      2.806750449800000     -6.315421373200000
C       4.648055297200000      2.215617093000000     -7.222927146900000
C       3.376344416700000      3.037853810000000     -7.266864627300000
O       2.686791611700000      2.960474677300000     -5.983324834200000
C       3.539383409600000      4.543872499200000     -7.541883352000000
O       3.722142575500000      4.880640408800000     -8.939291891900000
C       2.252323704800000      5.123820451500000     -6.916573578400000
C       1.978104869900000      4.183239505800000     -5.720581374800000
N       2.424219980900000      4.731884198000000     -4.431284963700000
C       3.714751990600000      4.815309086200000     -3.907141472100000
N       3.736861824100000      5.314412813200000     -2.680422947800000
C       2.398606160900000      5.558916120400000     -2.372528920500000
C       1.749853316300000      6.040380438300000     -1.210799870600000
N       2.418683008700000      6.447250236100000     -0.100833460100000
N       0.390163377700000      6.104603281500000     -1.228564196100000
C      -0.291131165500000      5.709393661200000     -2.332279477500000
N       0.223354290900000      5.264548442400000     -3.487331596800000
C       1.568816578300000      5.199608124700000     -3.445135543700000
H       5.076239296100000      2.167137585000000     -8.234412735999999
H       4.402649454200000      1.190440603200000     -6.907575092200000
H       2.715480622100000      2.606941902300000     -8.046976482700000
H       0.912257050600000      3.978660933200000     -5.584838515600000
H       2.336118051100000      6.168493670100000     -6.610571524600000
H       1.434586652200000      5.040585254100000     -7.643850989200000
H       4.439893984100000      4.904692354500000     -7.040409821000000
H       4.569011816800000      4.447853880900000     -4.464214224300000
H       3.385873663600000      6.163984189000000     -0.006710178800000
H       1.885232116300000      6.710580798400000      0.731939330100000
H      -1.373776762400000      5.736591907900000     -2.244662170500000
H       3.068667029200000      4.371714950000000     -9.452064106800000
C      -7.041657746500000      9.040883627099999      3.832169574200000
C      -6.776297428000000      7.968864466000000      2.777776365700000
O      -5.483150792500000      8.264289438000000      2.145295784400000
C      -6.705749064400000      6.509429861900000      3.321691897900000
O      -7.777954685600000      5.770425367200000      2.725595649900000
C      -5.291134114300000      6.029215942400000      2.929682706000000
C      -4.835138303800000      7.001745007300000      1.835558350600000
N      -3.374394229200000      7.249882948900000      1.832920135200000
C      -2.585496443500000      6.791897713300000      0.749541235100000
O      -3.066146805700000      6.303452772100000     -0.272401994300000
N      -1.215872290900000      6.938671230800000      0.937638917100000
C      -0.570195762100000      7.527706180400000      2.025669672500000
O       0.677019137700000      7.598976662000000      2.069545746600000
C      -1.451709306400000      8.048983002800000      3.066433353900000
C      -0.833404639200000      8.748796384800000      4.249874271300000
C      -2.791186570400000      7.873853129400000      2.918437279500000
H      -8.025278819100000      8.875971100999999      4.286896495700000
H      -7.023897325000000     10.041031348100001      3.384590473400000
H      -7.551795058500000      7.990807100900000      2.002204781400000
H      -5.097146054000000      6.654923997300000      0.833611123900000
H      -4.618874963600000      6.086153223100000      3.791974945200000
H      -5.307068145900000      4.997732645000000      2.597790422100000
H      -6.813509899900000      6.488244510400000      4.412948812200000
H      -3.502684437700000      8.239423890199999      3.650547217100000
H      -0.134854269400000      8.084499729899999      4.772706509500000
H      -1.600254600500000      9.080631748300000      4.958047232900000
H      -0.250668206000000      9.620999016600001      3.929122616400000
H      -0.605072476500000      6.598079415500000      0.140363588200000
P      -8.064186624700000      4.169062561000000      3.223122057700000
O      -9.532998613500000      4.065151691600000      3.433159854600000
O      -7.014673933200000      3.808078943300000      4.225860959200000
O      -7.637266852100000      3.380727036800000      1.816352424800000
C      -8.477547382299999      3.584013665700000      0.652930145100000
C      -7.692953131800000      3.404380244900000     -0.640531583400000
O      -6.517757356900000      4.304779049700000     -0.642865006000000
C      -7.141267507100000      2.007866415300000     -1.000367108100000
O      -8.148761344800000      1.248563027700000     -1.691843933700000
C      -5.956581337900000      2.377276638300000     -1.916310069200000
C      -5.415943339900000      3.666012440200000     -1.294128259300000
N      -4.310386260100000      3.377750360100000     -0.305973729200000
C      -3.006496527900000      3.312380468900000     -0.823132644200000
O      -2.749218404300000      3.438459601300000     -2.023972903300000
N      -2.025673816900000      3.079356688700000      0.131795798800000
C      -2.224029373100000      2.810507520600000      1.483395533700000
O      -1.235341937800000      2.562239756100000      2.226958372000000
C      -3.599908497500000      2.826262147400000      1.932025888200000
C      -3.916337583800000      2.540587730400000      3.377134069700000
C      -4.572847807900000      3.109583411200000      1.016610932700000
H      -9.306856162600001      2.864770581300000      0.657982349300000
H      -8.897770506300001      4.595858831800000      0.675282409300000
H      -8.357042548300001      3.707665776400000     -1.465182601400000
H      -4.968617151700000      4.352681100100000     -2.012991941900000
H      -5.199314207500000      1.603762086400000     -2.003008737800000
H      -6.354638830100000      2.586027765700000     -2.915179707200000
H      -6.818760732200000      1.468427730700000     -0.102670896200000
H      -5.620105041500000      3.158305652000000      1.299422792100000
H      -4.972969057300000      2.712881727400000      3.603245306800000
H      -3.310948280500000      3.179131900800000      4.032551673300000
H      -3.660463097600000      1.503324831500000      3.633693577900000
H      -1.049068800800000      2.987807022100000     -0.246931147300000
P      -7.982868208800000     -0.415646917000000     -1.781514956600000
O      -9.122716800399999     -0.894051665800000     -2.608946541600000
O      -7.597991764700000     -0.943356024800000     -0.437084993700000
O      -6.562783062200000     -0.567952155000000     -2.659586260600000
C      -6.541483096400000     -0.332229509400000     -4.083176494100000
C      -6.029018008600000     -1.560165735600000     -4.849216263200000
O      -4.770238895800000     -2.031872857300000     -4.264551993500000
C      -6.982516344500000     -2.776890826800000     -4.899356136400000
O      -6.987050513600000     -3.312606328800000     -6.267607235300000
C      -6.453390233200000     -3.680482655200000     -3.775042159800000
C      -4.960075558900000     -3.331446217100000     -3.639605957800000
N      -4.439115807200000     -3.351317783300000     -2.231211120100000
C      -3.066107556300000     -3.651157313000000     -2.053064831200000
O      -2.274690761500000     -3.811108229600000     -2.982980900400000
N      -2.660093735000000     -3.750001368800000     -0.724515156800000
C      -3.444519185700000     -3.536114533600000      0.407850474800000
O      -2.941318151700000     -3.609553157200000      1.557340151700000
C      -4.821624428000000     -3.181072514300000      0.158004551600000
C      -5.709764027700000     -2.873339714700000      1.334070618900000
C      -5.239836660200000     -3.078185803700000     -1.133212192400000
H      -7.539845594600000     -0.062761761700000     -4.449428535200000
H      -5.855982360600000      0.506728784600000     -4.270060420600000
H      -5.809868881800000     -1.252212473100000     -5.879361083100000
H      -4.326976425300000     -4.032114173000000     -4.176493256600000
H      -7.018478969100000     -3.423959642400000     -2.879489735000000
H      -6.612690370700000     -4.732389607400000     -3.998879241500000
H      -8.011209826600000     -2.474660825200000     -4.688063733900000
H      -6.233767581700000     -2.711063387700000     -1.340358782800000
H      -5.858236491600000     -3.769830925900000      1.950160765300000
H      -6.671327234900000     -2.478415961900000      1.001652614000000
H      -5.233991265000000     -2.125896537100000      1.981075028000000
H      -1.637764808800000     -3.911239583600000     -0.568456195800000
P      -6.574966172200000     -4.836067094900000     -6.761799193500000
O      -6.765409386900000     -4.848954875600000     -8.244490268800000
O      -7.099118091500000     -5.895675283300000     -5.847377226900000
O      -4.924348859300000     -4.807934258700000     -6.436619559000000
C      -4.072663669800000     -3.984073447300000     -7.256619298500000
C      -2.720768429000000     -4.667657907100000     -7.430977621300000
O      -1.968962299100000     -4.594937763600000     -6.182368490400000
C      -2.792345302900000     -6.167443161200000     -7.794340442600000
O      -2.773844210200000     -6.404240291200000     -9.231153471700001
C      -1.542565621400000     -6.749058745700000     -7.124448228700000
C      -1.323244400900000     -5.844476599500000     -5.887350678700000
N      -1.859372857400000     -6.394345592600000     -4.612710649600000
C      -0.959653245400000     -6.582997197300000     -3.541425927100000
O       0.266604594300000     -6.478120116900000     -3.653377503300000
N      -1.567069878300000     -6.933667694600000     -2.346205252400000
C      -2.933711991000000     -7.080438187200000     -2.104230112100000
O      -3.349537999200000     -7.352531897300000     -0.952792208500000
C      -3.801054528600000     -6.894361326700000     -3.253546526000000
C      -5.291120865700000     -7.041694184500000     -3.082255721700000
C      -3.226063280300000     -6.535889518000000     -4.431233529500000
H      -4.536640730800000     -3.835550185000000     -8.241404339800001
H      -3.928146853400000     -3.009129126500000     -6.771848108900000
H      -2.149082102400000     -4.145171443500000     -8.214774000800000
H      -0.267283898400000     -5.669515537700000     -5.683443507800000
H      -1.637826039900000     -7.803474779100000     -6.855974895100000
H      -0.693232436100000     -6.636826221100000     -7.808320845200000
H      -3.705266472100000     -6.599206273700000     -7.376776425600000
H      -3.842813276200000     -6.280564309000000     -5.283408362200000
H      -5.536589650300000     -8.046131548300000     -2.714680440800000
H      -5.825883352300000     -6.859023781100000     -4.018495307300000
H      -5.655555505200000     -6.338854701100000     -2.323441469500000
H      -3.674174249400000     -6.208950807700000     -9.548044247800000
H       3.874203760900000     -9.737158957200000      5.950745076700000
H      -6.280326005600000      9.000523212899999      4.620484223300000
C      -2.545501379400000     -0.319462124100000      0.448221403300000
C      -3.584159093200000     -0.248438844000000     -0.459762259600000
C      -3.344638797500000     -0.386181343200000     -1.845698818700000
C      -2.062763384000000     -0.565942133200000     -2.310851205100000
C      -0.959777107700000     -0.625206587200000     -1.416137523700000
C       0.365638886500000     -0.775120021300000     -1.881509487800000
C       1.389099749100000     -0.759995176700000     -0.963821454700000
N       2.755482635500000     -0.810906064700000     -1.148352562700000
C       3.377460870700000     -0.709001285500000      0.084421589200000
C       4.747153442100000     -0.643089903400000      0.345787656100000
C       5.141836632800000     -0.514215690300000      1.671515458000000
C       4.196295469500000     -0.440474245700000      2.717913929900000
C       2.833022152900000     -0.498268297200000      2.459702612400000
C       2.392883709000000     -0.639506036300000      1.124247649700000
C       1.124244098000000     -0.674267491300000      0.450454313600000
N      -0.161554402500000     -0.637491729500000      0.896972299700000
C      -1.223272209800000     -0.526814168500000     -0.004610714000000
C      -0.455205224000000     -0.753885280300000      2.348923066800000
H      -2.758397524600000     -0.201559896000000      1.500834553900000
H      -4.602464385900000     -0.109334498700000     -0.110580927400000
H      -4.180948355700000     -0.405129111000000     -2.529295636400000
H      -1.881116238400000     -0.704337390300000     -3.371524589400000
H       0.566419326800000     -0.860340040900000     -2.943935186100000
H       3.257305943800000     -0.704750173800000     -2.038379527300000
H       5.467794286300000     -0.723508164800000     -0.461500288600000
H       6.203786568400000     -0.481391848600000      1.895191577400000
H       4.541738438500000     -0.345908094200000      3.742983134200000
H       2.129601441800000     -0.424770731300000      3.279202349300000
H       0.372288598800000     -1.271728280000000      2.823742637100000
H      -0.612061072500000      0.241696188200000      2.774483436100000
H      -1.339910586000000     -1.378204821900000      2.472054196900000
H      -0.907065142600000     -7.066688432800000     -1.535762613200000
