283

C       5.766105963600000      6.734759333100000     17.668436817000000
C       6.801238943200000      7.496862219000000     18.498217835799998
O       8.144933374700001      7.099381985800000     18.041698777800001
C       6.711102514400000      9.040521748400000     18.371579394000001
O       6.855044940500000      9.605417157600000     19.682378722199999
C       7.872996938200000      9.375036509799999     17.417200776800001
C       8.912930240100000      8.286542001500001     17.691320114000000
N       9.763819290900001      7.965390419900000     16.536030638800000
C       9.332383361100000      7.665926473900000     15.248068435200000
N      10.310453294300000      7.377584865600000     14.407981200200000
C      11.465757578700000      7.486258909400000     15.182317124400001
C      12.833046690100000      7.294494829000000     14.876217270800000
N      13.279511963099999      6.916112330900000     13.646999773799999
N      13.730927708199999      7.471028871300000     15.880213033500000
C      13.296262802999999      7.822853252900000     17.114055299499999
N      12.028144524100000      8.019952581600000     17.511120200499999
C      11.152917512600000      7.838569870300000     16.506919390000000
H       4.756647620800000      6.922985749100000     18.054134588200000
H       5.963503166400000      5.657801440300000     17.708286659300001
H       6.719009295000000      7.231204134100000     19.557931919200001
H       9.592140523399999      8.556418407400001     18.506623732700000
H       7.527877604700000      9.326054077000000     16.379277177999999
H       8.234799419200000     10.377552635900001     17.600697832900000
H       5.753430300500000      9.353631095600001     17.937397681800000
H       8.280758901300000      7.661929045100000     14.999803579500000
H      12.631947574900000      7.022137066100000     12.876703788000000
H      14.286944316200000      6.976685989500000     13.441192007300000
H      14.078826662099999      7.988714849000000     17.849510371200001
P       6.763166843600000     11.289774071500000     19.903999094900001
O       5.805481265000000     11.507281736700000     21.022598819199999
O       6.687516664400000     11.942520702500000     18.558884479100001
O       8.314318962800000     11.551654532500001     20.431571512600001
C       8.736629575100000     10.881469332300000     21.645330173300000
C      10.219388956200000     11.130098172300000     21.883116424699999
O      10.990146181900000     10.561197489200000     20.765640275300001
C      10.640929101199999     12.609605903600000     22.014200022899999
O      11.642900683500001     12.695182741700000     23.056614755900000
C      11.194962563000001     12.941063358399999     20.620233719600002
C      11.766697503600000     11.599463419499999     20.133631499300002
N      11.709676125300000     11.429744344400000     18.653022090400000
C      12.873419589299999     11.038347451500000     17.957355076900001
O      13.935022096499999     10.730729743200000     18.495619391799998
N      12.730520744700000     11.050566112300000     16.569243313099999
C      11.607982837800000     11.432833983100000     15.845388136600000
O      11.646466350300001     11.480185257900001     14.587922074400000
C      10.435766326200000     11.769632288000000     16.626174378500000
C       9.174051836500000     12.190775284200001     15.914758630200000
C      10.539625494899999     11.724339438299999     17.983198858400002
H       8.152930147599999     11.251785651900001     22.499323930100001
H       8.564702440600000      9.802232653300001     21.542153000900001
H      10.519482324800000     10.600378253300001     22.795659829700000
H      12.819403957000000     11.480372736800000     20.393618954499999
H      10.366731692500000     13.270464311300000     19.989767671300001
H      11.947319789600000     13.725758382000000     20.669093557299998
H       9.798158629700000     13.259161310400000     22.265135705399999
H       9.687897687600000     11.924399842400000     18.625142666599999
H       9.359039869800000     13.093265355700000     15.316695255400001
H       8.365223662100000     12.392713665900001     16.623761024800000
H       8.844999426899999     11.416176245100001     15.211694336900001
H      13.596817991300000     10.814154757800001     16.030391966100002
P      12.209265116899999     14.223687062500000     23.479843401699998
O      12.816928299000001     14.059996783300001     24.829702713000000
O      11.190325709700000     15.244072178700000     23.093993070100002
O      13.439015754600000     14.397765265800000     22.342284293500001
C      14.618177039100001     13.570516368100000     22.494340852200001
C      15.885705649600000     14.388420735400000     22.279824782599999
O      15.993498384200000     14.787019315200000     20.855850391899999
C      15.959978049100000     15.691424501800000     23.114784620100000
O      17.322855920599999     15.825448769999999     23.605411030500001
C      15.523155992600000     16.759239705500001     22.104887158699999
C      16.063080966899999     16.231593095400001     20.774772752099999
N      15.293184210800000     16.693123250199999     19.601722681399998
C      13.934436037399999     17.000691798799998     19.540859020799999
N      13.526809750700000     17.353106235300000     18.331262527200000
C      14.666308306199999     17.251748006100001     17.542643071200001
C      14.856881691400000     17.411239298100000     16.153679304699999
N      13.855094462500000     17.788600759300000     15.318038195100000
N      16.094215392100001     17.165249949500001     15.648447020100001
C      17.083734418500001     16.792229364600001     16.497164735700000
N      17.011682568700000     16.601297390700001     17.822338418000001
C      15.771837847800001     16.836188431499998     18.302688519000000
H      14.645170214900000     13.141156543599999     23.503398188999999
H      14.581725262999999     12.752829234300000     21.759507685399999
H      16.758014969300000     13.763761232900000     22.505384136699998
H      17.099840812499998     16.532886117600000     20.592789888300000
H      14.431871342399999     16.761849515300000     22.105324496500000
H      15.896105330299999     17.743284059099999     22.374588864500002
H      15.276790717700001     15.651643029400001     23.967918432800001
H      13.297676840599999     16.916257007599999     20.409455939800001
H      12.925515429600001     17.840422798799999     15.713199308500000
H      13.976231285300001     17.694335416400001     14.299835486899999
H      18.051152487200000     16.636845186199999     16.025232646300001
P      18.024167469199998     17.259223759000001     24.096524768799998
O      19.013740213799998     16.895527472700000     25.148741566000002
O      17.020101529900000     18.360132787800001     24.186039747100001
O      18.893569378799999     17.603474586400001     22.680897435199999
C      19.984200280800000     16.710489918200000     22.405944255900000
C      20.739920057999999     17.203484346700002     21.189167417899998
O      19.868204616100002     17.139553085300001     20.020080349600001
C      21.249641122200000     18.659178731400001     21.241682343899999
O      22.517061019400000     18.812528536399999     21.929863553699999
C      21.284488707700000     19.050822151799998     19.750956918600000
C      20.155461374500000     18.209367739200001     19.113212336400000
N      18.906101723599999     18.981793126700001     18.848143333300001
C      18.704705762600000     19.401671230600002     17.522933671600001
O      19.560556428600002     19.270501795099999     16.638866480800001
N      17.467971864399999     19.974425124900002     17.282991128700001
C      16.453289032600001     20.199940307399999     18.218220951999999
O      15.361060124300000     20.689592405100001     17.851391334500001
C      16.771161306400000     19.826932246399998     19.590573232299999
C      15.749492061300000     20.083691242699999     20.667732434200001
C      17.959938253400001     19.208503250000000     19.834474808100001
H      20.667248522000001     16.665843864399999     23.265909680400000
H      19.606919698999999     15.695801267600000     22.212750766799999
H      21.604701089500001     16.532701208199999     21.017334385400002
H      20.442256219000001     17.808543409599999     18.140913774700000
H      21.155718803100001     20.119330451800000     19.567733366999999
H      22.247817579700001     18.746245917900001     19.322542436999999
H      20.543955689699999     19.267323243900002     21.811176169599999
H      18.215991120900000     18.822615888600001     20.818282591100001
H      15.459653174200000     21.141508038000001     20.674643521200000
H      16.134203183699999     19.813688166300000     21.654789567600002
H      14.835117744300000     19.511096648700001     20.477066561899999
H      17.264658226500000     20.172671156100002     16.269976027900000
H      23.135291867799999     18.158016018200001     21.557527980300002
C      15.833011412499999     23.418008040099998      7.416671838000000
C      17.039890394000000     22.479206110300002      7.532565925600000
O      17.377951369600002     22.272087882899999      8.947185982700001
C      16.798721367799999     21.077556088600002      6.940345508100000
O      18.041453503900001     20.605200854100001      6.400492432500000
C      16.291091764000001     20.290797092100000      8.164000525000001
C      17.018939101099999     20.921478952499999      9.354978706300001
N      16.199062270900001     20.985348580099998     10.580315921800000
C      14.903689590000001     21.476576254099999     10.708524431700001
N      14.467594374000001     21.520929687500001     11.955568265400000
C      15.540495124600000     21.040355548200001     12.707135463700000
C      15.722406185200001     20.870515936400000     14.099433311000000
N      14.779916757800001     21.195266961800002     15.021831151000001
N      16.923219536300000     20.395551319500001     14.520794771900000
C      17.880931824600001     20.094376739499999     13.612026340200000
N      17.816003150699999     20.226229825400001     12.277886810600000
C      16.625403675200001     20.709088261000002     11.877544153900001
H      15.664521184200000     23.695759315400000      6.368493613900000
H      16.004766694000001     24.328469357100001      8.000505309599999
H      17.921773021900002     22.927069001800000      7.063956818900000
H      17.925699767299999     20.376021483900001      9.630396030800000
H      15.207641609900000     20.410066942200000      8.254767253200001
H      16.496473319600000     19.232997662500001      8.046374299500000
H      16.037549305500001     21.089475281999999      6.149483663700000
H      14.338335626999999     21.797221421200000      9.845801645800000
H      13.840090616199999     21.364585346700000     14.690283554500001
H      14.926978995700001     20.954506206000001     16.012273079900002
H      18.797013162300001     19.683811978800001     14.029397620999999
P      18.160172242200002     19.002772890300001      5.857647420900000
O      19.180362778900001     19.026174607700000      4.775251185900000
O      16.779233909300000     18.436313211300000      5.767279228600000
O      18.816467346300001     18.320605356800002      7.232400504200000
C      20.168470068000001     18.708358205400000      7.584846912900000
C      20.701189527400000     17.831755768000001      8.715045945100000
O      19.898940250199999     18.061559155099999      9.933416049400000
C      20.647833403000000     16.310216129899999      8.450686319500001
O      21.767387692400000     15.687587777799999      9.150832851600001
C      19.302683421400001     15.931370950200000      9.067987169800000
C      19.303801011099999     16.800213861300001     10.328790363400000
N      17.974719695400001     17.050331981799999     10.931975967200000
C      17.832631359099999     16.961093142300001     12.333243555699999
O      18.760371554199999     16.726627004299999     13.106685648699999
N      16.522867429000001     17.138611691600001     12.783176772699999
C      15.390438615000001     17.351274664300000     12.000727834199999
O      14.247906170800000     17.394076853400001     12.525719158099999
C      15.626354600899999     17.499877383600001     10.581468221700000
C      14.456736503400000     17.749510791999999      9.667686392100000
C      16.900258486799999     17.353345548299998     10.126649079500000
H      20.819366755899999     18.616773559799999      6.705214837300000
H      20.169857699300000     19.757375866299999      7.913929422000000
H      21.733461830500001     18.129435871500000      8.937000415600000
H      19.898957535499999     16.344998804500001     11.118347596700000
H      18.510818707100000     16.215867366200001      8.374382779699999
H      19.250050945800002     14.872296432300001      9.273402153099999
H      20.697211095299998     16.065690904899999      7.386062383700000
H      17.145408772300001     17.460388137399999      9.076773106599999
H      13.698877331100000     16.968474650600001      9.806723688500000
H      14.764718651000001     17.754094393199999      8.619642820399999
H      13.973215045400000     18.705911410199999      9.901853795599999
H      16.398094425499998     17.119065331200002     13.824897293099999
P      21.819322327900000     14.020871968300000      9.315598741200001
O      23.228074507100001     13.694458268500000      9.679851717300000
O      21.019956246000000     13.386462326500000      8.226637614800000
O      20.856903608300001     13.798099527900000     10.691877458600000
C      21.416362664000001     14.041046919799999     12.002563918900000
C      21.424019592400001     12.771763176200000     12.851170013899999
O      20.024185988500001     12.404730570900000     13.224378102699999
C      22.031568284500000     11.520493795900000     12.155912206300000
O      22.944284479299998     10.885283951700000     13.103504509100000
C      20.783264873000000     10.711758031900001     11.771331914599999
C      19.849658780500000     10.979632917700000     12.947357035900000
N      18.430915954900001     10.714542942200000     12.689601079499999
C      17.790934990400000     10.584126746900001     11.456613404100001
N      16.482661801799999     10.434361951200000     11.551218734300001
C      16.231221693999998     10.475593464899999     12.918657302600000
C      15.023436085000000     10.481479390700001     13.648129203800000
N      13.803130999000000     10.416483227400001     13.052560354500001
N      15.099605154100001     10.563139748099999     15.002328599700000
C      16.314899049600001     10.658858466600000     15.587263649800001
N      17.516812961799999     10.725482980600001     14.989208993800000
C      17.419528967300000     10.634749737600000     13.648395235700001
H      22.449977514400000     14.395460560300000     11.912647155600000
H      20.812883163799999     14.809835104499999     12.504727834600001
H      21.965954519400000     12.962639245900000     13.784414993500000
H      20.126126651600000     10.404434518800000     13.836870806200000
H      20.387697050500002     11.176015951100000     10.862897383000000
H      21.007448005600001      9.658578752600000     11.612261340400000
H      22.610316303600001     11.810311877400000     11.276070016700000
H      18.344988553600000     10.614428802799999     10.531421270399999
H      13.791473061000000     10.512698949500001     12.044579774000001
H      12.976374331700001     10.719039855700000     13.590558682899999
H      16.297535305400000     10.694732166900000     16.673839932700002
P      23.230841717499999      9.266677744600001     13.323590171199999
O      24.634488129600001      9.146292504100000     13.816179598500000
O      22.641353107899999      8.427244100699999     12.236918004200000
O      22.201531998800000      9.021836333800000     14.645712225300000
C      22.581560865800000      9.665898870500000     15.875713439900000
C      21.813893608400001      9.043361469900001     17.028890511499998
O      20.397455033899998      9.402799224800001     16.933407250999998
C      21.835560522300000      7.500573873100000     17.084113187700002
O      22.977355336799999      6.974095216800000     17.814755936400001
C      20.526073599499998      7.179844289200000     17.808455453800001
C      19.571257410800001      8.302992697000001     17.336746133500000
N      18.690659820699999      7.898492590900000     16.200679025600000
C      17.323226406400000      7.713929565800000     16.474215549099998
O      16.838680550999999      7.809794052100000     17.606973627500000
N      16.554774018300002      7.409615391600000     15.361104269600000
C      16.999517202500002      7.249220616800000     14.043908588300001
O      16.180456847199999      6.978469515500000     13.138131303500000
C      18.428858381600001      7.433793784700000     13.842141350200000
C      19.001472501399999      7.291858689900000     12.456429256700000
C      19.191910737000001      7.776238664800000     14.915276938900000
H      23.661812439799998      9.544591207300000     16.043647670799999
H      22.363953306999999     10.742248362500000     15.826044836700000
H      22.213464817399998      9.431489262800000     17.979708342399999
H      18.883303247099999      8.620113009300001     18.119760605300002
H      20.129641035700001      6.184917235900000     17.594866953299999
H      20.689430108200000      7.268007092700000     18.888778071899999
H      21.840226609999998      7.100661571200000     16.065823699599999
H      20.242643316900001      8.020772439200000     14.798377110300001
H      18.874079816300000      6.265022290100000     12.089900607700001
H      20.066838205800000      7.543484904800000     12.435397494800000
H      18.466522571300001      7.938983203200000     11.753697555700001
H      15.521202581900001      7.372842570800000     15.544081805199999
H      23.755705387700001      7.102938905100000     17.244064032899999
C      12.791748751900000     14.415648669999999     16.332108613100001
C      12.791830234600001     14.333750526299999     17.709912574000001
C      13.961607500300000     14.002822422700000     18.421272498099999
C      15.142868400499999     13.814294645700000     17.742593086700001
C      15.197932170900000     13.904350978700000     16.324820632100000
C      16.419281364200000     13.767232303800000     15.626282932300001
C      16.405901418599999     13.852597270700000     14.251634004600000
N      17.431020708100000     13.731955927600000     13.331924997000000
C      16.897328858900000     13.773689568000000     12.054617653199999
C      17.571577163499999     13.639939867300001     10.839398214399999
C      16.816091696699999     13.717726515500001      9.675373098000000
C      15.423097953599999     13.946150038200001      9.712391070900001
C      14.750169519000000     14.083147943000000     10.917958999700000
C      15.478466073300000     13.974471424800001     12.126715819899999
C      15.174679366399999     14.024074915000000     13.530828823500000
N      13.999462581000000     14.166631310100000     14.207965603500000
C      13.976272276400000     14.164004170200000     15.605439037200000
C      12.750731388100000     14.291777094100000     13.415990690399999
H      11.872554507800000     14.674702832500000     15.826762980200000
H      11.875654331300000     14.533943013000000     18.251841328499999
H      13.954652055100000     13.951372620500001     19.502697710300001
H      16.057122362499999     13.628262972200000     18.295211000300000
H      17.339016073300002     13.583779988300000     16.169885224200002
H      18.398477594799999     13.448517715800000     13.523086493799999
H      18.647755460500001     13.497503190700000     10.817210581800000
H      17.317710731300000     13.623605939799999      8.717735913000000
H      14.875735834300000     14.043379026300000      8.779893349000000
H      13.691610380700000     14.304144572300000     10.916731922400000
H      12.773092708500000     13.535175717700000     12.633011477100000
H      11.890685530200001     14.069368686200001     14.036661187900000
H      12.698652290700000     15.297284580800000     12.988434338199999
H       5.802826777400000      7.050730665300000     16.618936679699999
H      14.921682526900000     22.939895538799998      7.794233049800000
