289

H      -7.223475460300000     -9.898970967200000      0.211858817600000
O      -7.939716169100000    -10.170559004599999      0.813577749600000
P      -9.030275069500000     -8.890302685300000      0.863922942400000
O     -10.224486835500000     -9.401605733400000      1.603858914600000
O      -9.058395697800000     -8.235091923900001     -0.481568499200000
O      -8.185736209400000     -7.814337618300000      1.819215153100000
C      -7.959827745500000     -8.126450146100000      3.209178562300000
C      -7.020298277800000     -7.096085306700000      3.837205223200000
O      -5.674036084200000     -7.227107027900000      3.265895642500000
C      -7.418661937700000     -5.623624446800000      3.622862361700000
O      -6.911577763100000     -4.819978054600000      4.723496894000000
C      -6.690923731900000     -5.269915898200000      2.316657491400000
C      -5.380104569900000     -6.059898243100000      2.452581457500000
N      -4.774136464200000     -6.496949329800000      1.179230938500000
C      -5.394305748200000     -6.909556899800000     -0.010129764900000
N      -4.532687929000000     -7.269993144500000     -0.943682729100000
C      -3.277463275100000     -7.119528307500000     -0.350545789200000
C      -1.965220700400000     -7.347391288700000     -0.853146144800000
O      -1.601004334100000     -7.680832444900000     -2.018126616700000
N      -0.976734967000000     -7.135160258000000      0.142423325600000
C      -1.226820634000000     -6.718624862900000      1.438572898900000
N      -0.151127499100000     -6.635351839200000      2.280181506900000
N      -2.442042350500000     -6.437370941100000      1.887900071300000
C      -3.417044173900000     -6.657533946900000      0.974419499600000
H      -8.916858402300001     -8.132917097300000      3.752127470500000
H      -7.502178578900000     -9.122163193700001      3.298913729500000
H      -6.938640136000000     -7.299884822100000      4.911799247300000
H      -4.606597468300000     -5.475411924800000      2.956654952300000
H      -7.281559495800000     -5.638584070400000      1.477711696700000
H      -6.522656523700000     -4.201202026700000      2.215848505900000
H      -8.502643033800000     -5.510447638300000      3.530964736300000
H      -6.472712798100000     -6.955884932400000     -0.100012779500000
H       0.006719962200000     -7.286317476200000     -0.144290952200000
H      -0.281145295100000     -6.049855990900000      3.095295963800000
H       0.803789084600000     -6.734591839700000      1.927009435700000
P      -7.902549426800000     -3.591261983800000      5.289731576700000
O      -8.903661037599999     -4.184133164000000      6.233292338300000
O      -8.266346688700001     -2.690466354900000      4.150620055800000
O      -6.734380413600000     -2.770117044300000      6.134506580400000
C      -6.166156818300000     -3.334265856100000      7.332269990800000
C      -4.784978329400000     -2.726806310300000      7.575717182800000
O      -3.854567207900000     -3.156063437300000      6.525154490000000
C      -4.713480856800000     -1.187249081400000      7.586352469600000
O      -3.641999452500000     -0.812149094600000      8.484275086200000
C      -4.393092935300000     -0.845843124900000      6.122885972200000
C      -3.542369670800000     -2.042557749100000      5.664822799300000
N      -3.749778184200000     -2.416665512900000      4.249484960100000
C      -4.904971643100000     -2.312092190600000      3.455990401200000
N      -4.681363969000000     -2.612626738200000      2.190068303800000
C      -3.333938111100000     -2.956812761100000      2.129016582100000
C      -2.515063954900000     -3.306029641400000      1.023959009500000
O      -2.846562435700000     -3.445346870200000     -0.183035509300000
N      -1.157381254600000     -3.451581505500000      1.397807937200000
C      -0.674879723500000     -3.309002936600000      2.679806456500000
N       0.677896338300000     -3.511065423700000      2.858902279100000
N      -1.437444294100000     -3.019143208100000      3.723769609200000
C      -2.741907428300000     -2.837669308300000      3.399247011500000
H      -6.821200369100000     -3.126513527000000      8.192885666800001
H      -6.061324497800000     -4.421381311200000      7.228668192900000
H      -4.392432745600000     -3.110818931700000      8.525351187300000
H      -2.471481541400000     -1.839075636100000      5.749671756400000
H      -5.324611443200000     -0.786577276700000      5.560528584900000
H      -3.857086264200000      0.100161336800000      6.052621421400000
H      -5.649683154000000     -0.722254189900000      7.907326854500000
H      -5.875793360500000     -2.072549021400000      3.869458116300000
H      -0.496386340100000     -3.644867189900000      0.613469705600000
H       1.027007878500000     -3.122878034700000      3.727283930200000
H       1.292877245500000     -3.424438648700000      2.037976411000000
P      -3.408669495600000      0.812864879900000      8.851754314900001
O      -2.842803584500000      0.819958921200000     10.231039997200000
O      -4.605448517700000      1.578711742300000      8.392356337300001
O      -2.188978988900000      1.205170209300000      7.753165757300000
C      -0.834537977900000      0.833985330400000      8.082792703000001
C       0.178199072400000      1.784872153100000      7.456685878600000
O       0.129455506100000      1.684504705400000      5.991054149200000
C       0.022079110600000      3.285909126600000      7.778741830900000
O       0.768522894200000      3.562487734100000      8.990933082300000
C       0.585124985800000      3.989639661700000      6.523327064400000
C       0.624975670300000      2.918584962600000      5.416774513200000
N      -0.176011767800000      3.236511708900000      4.226826219500000
C      -1.539922188000000      3.543796874600000      4.167862090100000
N      -1.991827195500000      3.647099940600000      2.933650268800000
C      -0.887574683500000      3.387853522300000      2.125150225200000
C      -0.766138853200000      3.284532641300000      0.704105470800000
O      -1.640919880000000      3.440704996200000     -0.180250414500000
N       0.558721733100000      2.934714135900000      0.316944261300000
C       1.601285231400000      2.684541449400000      1.183315751800000
N       2.780489118300000      2.254739571400000      0.632183083400000
N       1.492945261400000      2.778618521200000      2.506293199500000
C       0.248510177100000      3.125658472500000      2.915259144700000
H      -0.694252219300000      0.861691030600000      9.170843429600000
H      -0.635713122500000     -0.190553504000000      7.728909157900000
H       1.180942926200000      1.473678577200000      7.795596721200000
H       1.639663191300000      2.763909084400000      5.035689102800000
H      -0.002190411500000      4.861077917600000      6.239768324200000
H       1.598765160800000      4.329878630700000      6.730445116900000
H      -1.030458446800000      3.532880808300000      7.937404453300000
H      -2.123447106100000      3.649831049400000      5.072221226500000
H       0.740669330300000      2.876622528700000     -0.711780915500000
H       3.598514621600000      2.426483476400000      1.202539016700000
H       2.910312690300000      2.253894115600000     -0.390590931900000
P       0.910785044300000      5.127464618100000      9.552127010200000
O       1.355032467600000      5.021878094900000     10.969467225200001
O      -0.185567044600000      5.979540555800000      9.014870796200000
O       2.275434722600000      5.612601485900000      8.642196000000000
C       3.513105340200000      4.980342567500000      8.967485774700000
C       4.583500319600000      5.457840539400000      7.997090254200000
O       4.326910609100000      4.934517900300000      6.650001918000000
C       4.700737139300000      6.990986125200000      7.844846519200000
O       5.607677874400000      7.603644748500000      8.801205896000001
C       5.125491975300000      7.166988708200000      6.374416097600000
C       4.495059068600000      5.960800277800000      5.644988872200000
N       3.224136194100000      6.259110449900000      4.979752129300000
C       2.027415513000000      6.743583947000000      5.545357192800000
N       1.089132437300000      6.934809476600000      4.644853586400000
C       1.665147001800000      6.573657512800000      3.429001845800000
C       1.128427144700000      6.595155165200000      2.101213807200000
O      -0.012675614600000      6.931140940200000      1.726866446700000
N       2.097776930200000      6.176968912200000      1.143725811000000
C       3.395382808200000      5.812974161300000      1.429893556300000
N       4.177660160500000      5.453319258800000      0.362941843900000
N       3.892938763600000      5.774307729900000      2.668787421800000
C       2.989985566700000      6.153557456500000      3.610750087700000
H       3.819640202000000      5.227147020200000      9.996098665200000
H       3.424382551800000      3.885863584200000      8.896388412700000
H       5.562968036200000      5.058735816700000      8.326934313500001
H       5.139986548800000      5.571201913000000      4.853085556000000
H       4.819539738300000      8.120867782099999      5.939710270500000
H       6.219334057500000      7.093113396400000      6.312717424900000
H       3.731321703100000      7.449332552600000      8.045326995500000
H       1.905198717500000      6.829176930100000      6.617585773000000
H       1.811874631400000      6.273886203400000      0.140289427900000
H       5.163090596600000      5.370373319700000      0.578477807200000
H       3.938830695200000      5.810333862100000     -0.578999740600000
H       6.405738178100000      7.046812497700000      8.843863177299999
H      -0.170481544900000     10.698187480400000     -5.165671747500000
O      -0.321573385600000     10.937070735200001     -6.097308846600000
P      -1.038121932100000      9.606184268900000     -6.830863321700000
O      -1.480475303800000     10.068796448800001     -8.175265001800000
O      -1.889433695700000      8.904260622400001     -5.815048070900000
O       0.295591972900000      8.598456497900001     -6.975256217800000
C       1.500228660700000      9.040000756900000     -7.624902384900000
C       2.710858924000000      8.379402670099999     -6.972152520900000
O       2.832974433300000      8.811693321000000     -5.559273462200000
C       2.732430458900000      6.837511077500000     -6.937914123100000
O       3.349579947400000      6.353731763900000     -8.141231621999999
C       3.563851190000000      6.548910921600000     -5.668329514500000
C       3.198549367300000      7.702037336000000     -4.728950377100000
N       2.061018748300000      7.377294353900000     -3.781014231200000
C       2.370018400700000      6.890340366800000     -2.482287873900000
O       3.566204871700000      6.639230468300000     -2.188779465700000
N       1.348249531300000      6.727921515300000     -1.591424263100000
C       0.072071605900000      7.001067957100000     -1.938496661700000
N      -0.874710690200000      6.857547910400000     -0.980576545700000
C      -0.264088093300000      7.410779277900000     -3.264554888100000
C       0.760808831000000      7.596103983200000     -4.145248487600000
H       1.485317374100000      8.749057433000001     -8.684824520899999
H       1.594531455000000     10.130618403600000     -7.554746809000000
H       3.613997731600000      8.716445510200000     -7.503385140400000
H       4.019581693100000      7.992883038100000     -4.072570176700000
H       3.398033935000000      5.567991550800000     -5.227697586700000
H       4.625372257900000      6.624179676600000     -5.930027999600000
H       1.715656130300000      6.440994170300000     -6.856490362500000
H       0.583073690100000      7.946915071300000     -5.157132928900000
H      -1.272865444100000      7.643015605900000     -3.590755674200000
H      -0.603084087300000      6.762265281300000      0.012018367800000
H      -1.829133119300000      7.110585313000000     -1.194093834400000
P       2.843707481900000      4.885261345000000     -8.793927262100000
O       3.528601214200000      4.810174575100000    -10.112032408499999
O       1.391386425100000      4.690952072500000     -8.517969356400000
O       3.570355844000000      3.817275874000000     -7.725342280600000
C       5.001307219600000      3.749017665700000     -7.624904649300000
C       5.378983159500000      2.649535924000000     -6.635352657900000
O       4.851546385600000      2.978041252400000     -5.297119120300000
C       4.845686466200000      1.240049987600000     -6.973876903400000
O       5.856619436500000      0.284982252700000     -6.563978587500000
C       3.562233547900000      1.145504624900000     -6.144594582900000
C       3.879667466100000      1.980522027900000     -4.898307901800000
N       2.678978176300000      2.648998355500000     -4.321953851700000
C       2.332790198200000      2.458537995300000     -2.956524193200000
O       3.117077863700000      1.854679849200000     -2.185439863700000
N       1.126221428700000      2.936348285800000     -2.523139202800000
C       0.336583277200000      3.667350244100000     -3.335181191800000
N      -0.869919188600000      4.055932891100000     -2.859839117200000
C       0.746507990800000      4.000086494100000     -4.666011507500000
C       1.898529215900000      3.442888047300000     -5.125572944900000
H       5.442755437400000      3.534406580000000     -8.609321631300000
H       5.400467279300000      4.710743528100000     -7.270839973100000
H       6.471555797400000      2.605499721300000     -6.549866351600000
H       4.292299416600000      1.378415149100000     -4.089668194700000
H       2.736470236400000      1.578844050400000     -6.711964232900000
H       3.331782087400000      0.112862784400000     -5.907655442400000
H       4.638307889200000      1.123786068600000     -8.041850336200000
H       2.259372982100000      3.608080448300000     -6.135766812200000
H       0.149677179400000      4.626503464100000     -5.318279679700000
H      -1.139815428000000      3.865887326700000     -1.879668601900000
H      -1.383734965000000      4.755184823300000     -3.378749803100000
P       5.557645999200000     -1.366696928100000     -6.654792434500000
O       6.890514705400000     -1.985472847000000     -6.898786301700000
O       4.312938459500000     -1.610815797500000     -7.444207565700000
O       5.098070982300000     -1.658346048600000     -5.059197448200000
C       6.103994677100000     -1.476113538700000     -4.044838208300000
C       5.896987856100000     -2.432114630100000     -2.882651485900000
O       4.568691820000000     -2.220233644900000     -2.279787948200000
C       5.941288948600000     -3.939512945500000     -3.199882915900000
O       7.313678722800000     -4.397899839200000     -3.230421900000000
C       5.125781502700000     -4.544116139900000     -2.041084264700000
C       4.210294346500000     -3.415581787400000     -1.542012858300000
N       2.769194207400000     -3.694331752100000     -1.734010547000000
C       1.875709780200000     -3.581799245500000     -0.626342197800000
O       2.316233225900000     -3.228000245000000      0.490134340600000
N       0.561864972900000     -3.859323946300000     -0.837552277700000
C       0.108213104100000     -4.281435557800000     -2.034483908000000
N      -1.211882553600000     -4.512279017500000     -2.149360738400000
C       0.999999477800000     -4.433246840300000     -3.148572631100000
C       2.303024725900000     -4.097970430700000     -2.959375465000000
H       7.101911801000000     -1.673628039900000     -4.459222627100000
H       6.071171430000000     -0.438620176300000     -3.679097429400000
H       6.670700879900000     -2.218955462500000     -2.125224858800000
H       4.316174369400000     -3.233720524600000     -0.472710151900000
H       4.567765096800000     -5.423039805300000     -2.350544368300000
H       5.793551525300000     -4.855539626100000     -1.239868993300000
H       5.476361145000000     -4.127817223600000     -4.172006876000000
H       3.029981082100000     -4.099457166300000     -3.763661544600000
H       0.636972357500000     -4.718934066100000     -4.127658183300000
H      -1.850079230600000     -4.259553884200000     -1.368306643000000
H      -1.567976665100000     -5.057459368500000     -2.922783398800000
P       7.635058632500000     -5.990570255300000     -3.610885590000000
O       9.102828387900001     -6.070521581800000     -3.847232209900000
O       6.555858276800000     -6.561615693800000     -4.467721469300000
O       7.321655784700000     -6.720438588700000     -2.105168379300000
C       8.138262908100000     -6.397005990600000     -0.980138943000000
C       7.557822518100000     -7.098400494000000      0.243698527600000
O       6.225662695300000     -6.560988087800000      0.537731312500000
C       7.373102336900000     -8.625019059400000      0.081890682700000
O       8.490980011800000     -9.395708355800000      0.607477525200000
C       6.109251620800000     -8.919876630199999      0.895988896300000
C       5.283416030900000     -7.616652480800000      0.814607380500000
N       4.192337095700000     -7.650229040900000     -0.201067563000000
C       2.831466298000000     -7.497085647800000      0.248983205000000
O       2.605474238800000     -7.313552207800000      1.461488458700000
N       1.838159209400000     -7.565940627600000     -0.684786686200000
C       2.109718955100000     -7.761753676700000     -1.988235639500000
N       1.062097095300000     -7.861187423000000     -2.834756874400000
C       3.460981670900000     -7.856461757300000     -2.462634446600000
C       4.460180659300000     -7.790979898400000     -1.541460971600000
H       9.178812875600000     -6.728031981700000     -1.140152833800000
H       8.162720798800001     -5.310880828400000     -0.809898502700000
H       8.203966237500000     -6.917382369600000      1.116694675900000
H       4.765522509100000     -7.391406368000000      1.745199609800000
H       5.550739964100000     -9.789014381799999      0.542331105600000
H       6.403859469100000     -9.096010582700000      1.936527921400000
H       7.232994079500000     -8.865606948900000     -0.976336556000000
H       5.502532135300000     -7.756854704700000     -1.839997476400000
H       3.709484017000000     -7.910873743200000     -3.516360057000000
H       0.073763153600000     -7.783780070200000     -2.498799025200000
H       1.242576706200000     -7.944833912500000     -3.825464057000000
H       9.239390818100000     -9.263423317599999     -0.000134830900000
C      -2.949206317200000      0.273254274100000      1.724162148500000
C      -2.917931600600000      0.499677889200000      3.084818163600000
C      -1.718439536000000      0.399871837000000      3.820214553800000
C      -0.541841099700000      0.123801022500000      3.164775078500000
C      -0.516278892200000     -0.096051685900000      1.757081154400000
C       0.689036537400000     -0.331213057000000      1.060817721600000
C       0.643988761400000     -0.463509220400000     -0.310058800700000
N       1.663653165000000     -0.649755047700000     -1.228669801600000
C       1.126108907900000     -0.748354541100000     -2.501441096300000
C       1.804074732700000     -0.923906500500000     -3.712726922200000
C       1.040313952200000     -1.000466134200000     -4.873294106900000
C      -0.368184273300000     -0.882442399500000     -4.828987155200000
C      -1.042072705100000     -0.709636182900000     -3.624699656900000
C      -0.301944232300000     -0.656709874900000     -2.421957657300000
C      -0.601296556800000     -0.475921145800000     -1.021682461000000
N      -1.770622409500000     -0.334458175200000     -0.335746185200000
C      -1.762439406000000     -0.051664860500000      1.034592733800000
C      -3.061159718800000     -0.523228481900000     -1.046541169100000
H      -3.891293111600000      0.350417535300000      1.201701610900000
H      -3.836780941000000      0.755931480000000      3.598883744200000
H      -1.711461222900000      0.585690695100000      4.887274278100000
H       0.392733065600000      0.102788076500000      3.714067664000000
H       1.630922005700000     -0.368471627300000      1.594549347000000
H       2.646747593300000     -0.479567445900000     -1.052989792900000
H       2.884019750600000     -1.023593268700000     -3.740156546300000
H       1.542840928500000     -1.154125990500000     -5.823411892300000
H      -0.933207692900000     -0.917722237000000     -5.755629450500000
H      -2.119435932100000     -0.604602319700000     -3.624357280300000
H      -2.912552889700000     -1.269201980600000     -1.821898253100000
H      -3.795148674000000     -0.935680518900000     -0.358546238600000
H      -3.397319536000000      0.430374524600000     -1.464605808200000
