279

C       6.042544864400000      5.499510149600000     18.999857025400001
C       7.188011704700000      6.449777220500000     19.352483287199998
O       8.308443970000001      6.189602495000000     18.433037890600001
C       6.834978549300000      7.956587884200000     19.207248307699999
O       7.482994924400000      8.668161277199999     20.270825446600000
C       7.456207165600000      8.311559709599999     17.843569472500000
C       8.737122861800000      7.474305550600000     17.876626053900001
N       9.389964923000001      7.257087934600000     16.592858631100000
C       8.799816984500000      7.104781787500000     15.331637995900000
N       9.675828587700000      6.934991736500000     14.363028759600001
C      10.917997502700000      6.958727375500000     14.998519339900000
C      12.247468715200000      6.871506391500000     14.461405225000000
O      12.606607984200000      6.737623219000000     13.272396888999999
N      13.223696230800000      6.965016724200000     15.490495260499999
C      12.957418967800001      7.167301348500000     16.834062118399999
N      14.020640912199999      7.250022159300000     17.673734290199999
N      11.719865765800000      7.271564892700000     17.324843685000001
C      10.763783388400000      7.159199073400000     16.380085947100000
H       5.232520058600000      5.589979007200000     19.734030645600001
H       6.398123506800000      4.463192978600000     18.992683217900002
H       7.538344140200000      6.274525587900000     20.376266079699999
H       9.487299147700000      7.923390747000000     18.533954961700001
H       6.798830804200000      7.976007876800000     17.032987422700000
H       7.607092427400000      9.386734505600000     17.768336452700002
H       5.751203235500000      8.126538871299999     19.227714472100001
H       7.727162323700000      7.123589369500000     15.206365988500000
H      14.215506250400001      6.925739524500000     15.172019579300001
H      13.863815029000000      7.704376653300000     18.564284914400002
H      14.981620685399999      7.124730506400000     17.336134073800000
P       7.013648687600000     10.269967390300000     20.581982780600001
O       6.066192619200000     10.237468062900000     21.733469664899999
O       6.735058344800000     10.939760050500000     19.273500494600000
O       8.504082701400000     10.814146833000001     21.057152087300000
C       9.112746752200000     10.280104759400000     22.258063667500000
C      10.562673913399999     10.745179185800000     22.346080484000002
O      11.352203597000001     10.113213553300000     21.271445438299999
C      10.784809189900001     12.270006200299999     22.226513215299999
O      11.811147225099999     12.644638575700000     23.179933397199999
C      11.212428729499999     12.448741398599999     20.759934805499999
C      11.917878060300000     11.125803374700000     20.416346353100000
N      11.740099362200000     10.729926310700000     18.985119486900000
C      12.866345470600001     10.476780492200000     18.148914317999999
O      14.006858401300001     10.351058292999999     18.651363075599999
N      12.659550485700001     10.394220824600000     16.799054896099999
C      11.415541662100001     10.416778297900001     16.290337370400000
N      11.275227230400001     10.366039231100000     14.942692979300000
C      10.266218274700000     10.509865370200000     17.132993686799999
C      10.471926516600000     10.674634250400000     18.466670489700000
H       8.556737408100000     10.624956549500000     23.141008300199999
H       9.088741121200000      9.183449318499999     22.230962881500002
H      10.981440112200000     10.401580293400000     23.299496668200000
H      12.996310418700000     11.176258190800000     20.568899038500000
H      10.314387117800001     12.582145025299999     20.152719159600000
H      11.862745108500000     13.312696549600000     20.636450727900002
H       9.872706957100000     12.835710710800001     22.433966331400001
H       9.657454907100000     10.765003241000001     19.179068154599999
H       9.262020129100000     10.476467535899999     16.731564364899999
H      12.105770985200000     10.270460752800000     14.332253945300000
H      10.371403493000001     10.123310368500000     14.559253285000000
P      12.273153362100000     14.258084831000000     23.263811649099999
O      12.894399599200000     14.435709741500000     24.607493282499998
O      11.192998531900001     15.107196654399999     22.679228762200001
O      13.489184155000000     14.269842824300000     22.103031541000000
C      14.791498832700000     13.749807714099999     22.457097956900000
C      15.882506215199999     14.771242896700000     22.146128083499999
O      15.955000166700000     14.985448761700001     20.686244371000001
C      15.668075144399999     16.166273703900000     22.789873668799999
O      16.976529182200000     16.661318351100000     23.233436252499999
C      15.001063813100000     16.946734618699999     21.651373227099999
C      15.688402593999999     16.384209221599999     20.403238210600001
N      14.890361185100000     16.522235112400001     19.176162745799999
C      13.508149230400001     16.704754066100001     19.057660886000001
N      13.121397945000000     16.935064260499999     17.815947680899999
C      14.293231613200000     16.877497523599999     17.065419090100001
C      14.499006273799999     17.042542737000002     15.665447969400001
O      13.640705685600000     17.266920285699999     14.777816799300000
N      15.861277735200000     16.919661939400001     15.311410235000000
C      16.890102951700001     16.679598920699998     16.206518386199999
N      18.139013485500001     16.583751668700000     15.676780630400000
N      16.701689852900000     16.530275084800000     17.519216683400000
C      15.403973511900000     16.635008115400002     17.890471005700000
H      14.824326574500001     13.504896763400000     23.525448322999999
H      14.976075315299999     12.836783498300001     21.871801386200001
H      16.852314770300001     14.372080591100000     22.467420821899999
H      16.634297382500002     16.889264005699999     20.201251037900001
H      13.946002987300000     16.668177708300000     21.669636175000001
H      15.113036414600000     18.024427878000001     21.761309071900001
H      15.021767218600001     16.101495692499999     23.668850667899999
H      12.851569892700001     16.627633915600001     19.912189745500001
H      16.084508368800002     17.028335309799999     14.295301401800000
H      18.903789563400000     16.457869545099999     16.324465351800001
H      18.310376006700000     16.583546767500000     14.661897020400000
P      17.584896965300000     18.177821447900001     23.044616508600001
O      18.781580127200002     18.268436946500000     23.930569255700000
O      16.516831730600000     19.227870795400001     22.974149653300000
O      18.109203691200001     18.096276529800001     21.438190948700001
C      19.458739213600001     17.722092678700001     21.123519287600001
C      20.269854085399999     18.935734300899998     20.660333144199999
O      19.808887884400001     19.435692848399999     19.355018752599999
C      20.207908771300001     20.167057090699998     21.584665815400001
O      21.447257553800000     20.948022293000001     21.513922325500001
C      18.999488860400000     20.956926830400000     21.042097177500001
C      19.016919598600001     20.639433031700001     19.532329286400000
N      17.695807522500001     20.488979257699999     18.859806315200000
C      17.648311725799999     20.808452685399999     17.463584142199998
O      18.684158812800000     21.233749001700001     16.900077605300002
N      16.472924826200000     20.644994212200000     16.793208678500001
C      15.376107845600000     20.165836807300000     17.415291079900001
N      14.236098545700001     20.069582865299999     16.691501463800002
C      15.416737971800000     19.791258682300001     18.794211208699998
C      16.586434766699998     19.957013420999999     19.474483567099998
H      19.950265037800001     17.278139646600000     21.998351244599998
H      19.425891781600001     16.989318496100001     20.306476835500000
H      21.312763760100001     18.622980612599999     20.517533667799999
H      19.508712986399999     21.426016554000000     18.959701528099998
H      18.093451840600000     20.617614263899998     21.546041003700001
H      19.121344571400002     22.027930623500001     21.224945816599998
H      20.088880700299999     19.890039133700000     22.633226208300002
H      16.687613282899999     19.672592109099998     20.515167069600000
H      14.551392503100001     19.370754504099999     19.290676474300000
H      14.257393670800001     20.265111093000002     15.678818041100000
H      13.487329239899999     19.481096970799999     17.040045988700001
H      21.642705680100001     21.095001011099999     20.570943408000002
C      17.785873913100001     23.939213131799999      6.044432981300000
C      18.377961890800002     23.042198041399999      7.122402326800000
O      17.518369266499999     23.097606168799999      8.306922154400000
C      18.507143375100000     21.540987586699998      6.736689305000000
O      19.887051283300000     21.267024635599999      6.443071783300000
C      17.954536665399999     20.784436743600001      7.974534804100000
C      17.790578508500001     21.875645941199998      9.041420281300001
N      16.699898183599998     21.666592144500001      9.987290143499999
C      15.330686640400000     21.599739773500001      9.721400570300000
N      14.607813082300000     21.353817532299999     10.798727064800000
C      15.539402318700001     21.250385548699999     11.834082093099999
C      15.366760090000000     20.977038764000000     13.230144356600000
O      14.306378592100000     20.769077993700002     13.858372870200000
N      16.612611273999999     20.941357578400002     13.908571288599999
C      17.850295483899998     21.123699877300002     13.318078777200000
N      18.940904990500002     21.000247581099998     14.117356115900000
N      18.009897680700000     21.385287834900002     12.018925158200000
C      16.841625000200001     21.435080340700001     11.345557445200001
H      18.418905660899998     23.896360379000001      5.151291654100000
H      17.722181826800000     24.978960242700001      6.385480076400000
H      19.383230176000001     23.391938191700000      7.402277442200000
H      18.699573730099999     21.983472861900001      9.645028029500001
H      16.981665007099998     20.337206747100002      7.747291514500000
H      18.637622588900001     19.994674486099999      8.286848949099999
H      17.906378269299999     21.304342749100002      5.852419498900000
H      14.950994629800000     21.762337145899998      8.722899211300000
H      16.564442119999999     20.798185946400000     14.943519472500000
H      19.828194054400001     21.201151332500000     13.676286254600001
H      18.861636356799998     21.058063965500001     15.146346016300001
P      20.228035362600000     19.833662665100000      5.598864491100000
O      21.643500265000000     19.980821231000000      5.155732222500000
O      19.058800078800001     19.518962502499999      4.728442485100000
O      20.149415223999998     18.734481382199998      6.863646301300000
C      21.276436569500000     18.699430766599999      7.771427296900000
C      21.116945195400000     17.590180645899999      8.801212264800000
O      20.109375997800001     17.982478253800000      9.816137352000000
C      20.667661839600001     16.207325147799999      8.248958776700000
O      21.525903080500001     15.200613633600000      8.856073667300000
C      19.208652649899999     16.123510588199998      8.707021822900000
C      19.290261351200002     16.812163164299999     10.067255380100001
N      18.003011469499999     17.235447855299999     10.650215975000000
C      17.699084154000001     16.971920235799999     12.025128760999999
O      18.565973731900002     16.480870697400000     12.775602900999999
N      16.434845261900001     17.267437330500002     12.468965989000001
C      15.540831502900000     17.874431215800001     11.667855150599999
N      14.292508161000001     18.102676772700001     12.147007521200001
C      15.874668699800001     18.251364784100002     10.330556134000000
C      17.103021961300001     17.905620054200000      9.869523054100000
H      22.199219539900000     18.529475164200001      7.201490207100000
H      21.372052981800000     19.663244238899999      8.293422735500000
H      22.074834933100000     17.458461382100001      9.320152864000001
H      19.755458255499999     16.164590149799999     10.811236638500000
H      18.603080757400001     16.706341333499999      8.006432397299999
H      18.856959968799998     15.098704556100000      8.734321564000000
H      20.754414969199999     16.153317601900000      7.161326180500000
H      17.435514124099999     18.141963596000000      8.868767832500000
H      15.175529163600000     18.793223298699999      9.708287926100001
H      14.092877366500000     17.900204488300002     13.140084639900000
H      13.765707655100000     18.860285921700001     11.724951674100000
P      21.163031767800000     13.569757081400001      8.856627570000001
O      22.476969012100000     12.871989319400001      8.937831840099999
O      20.064324145000000     13.267028117200001      7.891554260700000
O      20.404463189200001     13.447412879200000     10.361380562000001
C      21.182746041700000     13.664120257400000     11.559913001400000
C      21.226649337300000     12.417299788599999     12.436304691400000
O      19.861543998700000     12.151643518900000     12.977904392999999
C      21.681889525500001     11.118825157900000     11.717129146300000
O      22.636235934300000     10.445686406600000     12.594126853900001
C      20.356334277199998     10.374988687500000     11.492348677200001
C      19.531384969800001     10.752462755000000     12.718624428400000
N      18.083230099500000     10.625231527500000     12.541378235000000
C      17.365605422400002     10.593024307600000     11.337489410700000
N      16.064491787400001     10.484847085900000     11.512788032300000
C      15.893062504300000     10.464430678399999     12.894954800500001
C      14.699232130400000     10.392540557400000     13.675668432400000
O      13.516755535600000     10.390467691100000     13.269873026799999
N      14.980733420400000     10.328695260200000     15.063475828100000
C      16.249061901000001     10.344847087700000     15.610618244899999
N      16.332962098199999     10.208285359900000     16.958706434500002
N      17.364909178100000     10.476143160299999     14.883639502199999
C      17.130861119599999     10.525481393700000     13.552660012800001
H      22.212185200200000     13.941236328100000     11.302937131900000
H      20.721216194299998     14.487560903400000     12.123109067400000
H      21.884197984000000     12.600609872300000     13.294128891900000
H      19.799002580500002     10.158824696400000     13.599132667599999
H      19.915035456199998     10.806375173299999     10.590353647000001
H      20.502928123200000      9.303123315500001     11.362629874800000
H      22.171592889399999     11.346539600500000     10.767617324700000
H      17.859320923300000     10.672428174500000     10.381841502100000
H      14.151400106200001     10.299909777800000     15.704406830000000
H      17.252872466300001     10.319970353400000     17.362231873999999
H      15.498442714299999     10.258212609199999     17.565676606600000
P      23.013553404700001      8.830385578000000     12.480572385700000
O      24.412060938900002      8.684561553000000     12.980678788500001
O      22.479189901700000      8.220010045600000     11.230335835100000
O      21.978847377400001      8.272814974299999     13.706589947399999
C      22.373577529599999      8.624262926200000     15.043643206700001
C      21.563415198800001      7.818571481900000     16.040282387200001
O      20.185816804200002      8.322350263200001     16.089043518000000
C      21.414481691900001      6.318398925700000     15.720420762800000
O      22.528055328899999      5.518246021500000     16.193790455500000
C      20.124302270000001      5.957205940700000     16.459219389699999
C      19.274749278200002      7.242542576300000     16.327333724100001
N      18.277363425499999      7.181854533300000     15.212597383000000
C      16.929139452600001      6.867390622500000     15.548945160000001
O      16.653114230900002      6.564127787200000     16.732280621600001
N      15.987099251000000      6.929769198000000     14.566717299100000
C      16.323275068699999      7.220646927500000     13.296232509399999
N      15.324612984100000      7.271947592000000     12.381338030400000
C      17.688715947599999      7.455774618100000     12.926848504900001
C      18.626144157599999      7.458023622600000     13.915913751200000
H      23.443541300400000      8.414031384599999     15.185291184200000
H      22.216940304600001      9.697982065200000     15.224396277900000
H      22.011292468000001      7.922685066600000     17.042076776599998
H      18.679020919500001      7.439317696000000     17.218184550299998
H      19.607911880900001      5.081384287200000     16.061772013500001
H      20.357449191899999      5.775234245800000     17.514891429100000
H      21.305290415399998      6.193981952500000     14.638651896600001
H      19.667843640000001      7.706989461000000     13.734952962900000
H      17.965766999000000      7.697880331600000     11.908803135699999
H      14.348615962500000      7.157244300700000     12.700657301300000
H      15.477330272900000      7.817892608500000     11.540502567000001
H      23.276195896499999      5.704311680900000     15.598812000300001
C      12.832960589700001     13.823445905100000     16.339493339000001
C      12.914912965999999     13.666515973699999     17.709448447800000
C      14.155288242399999     13.492298506499999     18.355474730299999
C      15.308481305700001     13.441310268400001     17.605914058800000
C      15.276155543300000     13.583076985100000     16.192060304900000
C      16.458260015400000     13.540568299400000     15.416038858000000
C      16.354131700300002     13.680056234100000     14.050842463400000
N      17.318884195399999     13.635742195200001     13.064443838500001
C      16.709227902500000     13.791875858099999     11.830850953600001
C      17.305388991000001     13.742844389100000     10.568707134500000
C      16.476180180499998     13.882005065800000      9.462418106499999
C      15.080905964499999     14.060292173800001      9.602323568899999
C      14.486263636000000     14.105783916100000     10.855111304099999
C      15.300577042400000     13.982532288900000     12.004222382700000
C      15.082103353000001     13.917995263700000     13.418474760200001
N      13.961054998800000     14.056805778199999     14.179854607099999
C      14.004308614699999     13.815417382800000     15.556761336499999
C      12.709556935300000     14.541114366300000     13.543150789500000
H      11.861721150199999     13.951161532700000     15.882634258700000
H      12.004457173700001     13.689909200100001     18.296262748400000
H      14.204295702800000     13.432125198100000     19.435539117000001
H      16.270131336900000     13.331235764000001     18.094787173499999
H      17.419399266100001     13.387065469200000     15.892574054500001
H      18.287686620700001     13.318991931399999     13.176966495200000
H      18.375285982099999     13.588991468400000     10.462855876900001
H      16.920755971599998     13.834284594900000      8.472869385199999
H      14.462939366100001     14.149376394100001      8.713746452300001
H      13.412164723000000     14.210020737000001     10.935879732200000
H      12.982642286500001     15.193551309100000     12.717453270200000
H      12.110990714800000     13.693255377400000     13.197181215700001
H      12.163775889700000     15.150308824300000     14.259432435100001
H       5.642476991200000      5.728972782500000     18.005175933099999
H      16.780120775600000     23.596886496700002      5.774720245900000
