283

C       6.589040673400000      6.101313841000000     17.946688929800001
C       7.623998763800000      7.001480098000000     18.625571232799999
O       8.892695715600000      6.887906469700000     17.890677555100002
C       7.253633800800000      8.509866355200000     18.636438234100002
O       7.682299405600000      9.057887994800000     19.889028155999998
C       8.060276222800001      9.057987789100000     17.443396298500002
C       9.341057620400001      8.232424894999999     17.537402138400001
N      10.133623053399999      8.151045222900001     16.312911012099999
C       9.726837577800000      8.337947526600001     14.997545364700001
N      10.697920659099999      8.188853182500001     14.112235679399999
C      11.818083278000000      7.879941209400000     14.885506188700001
C      13.165978903999999      7.625142316800000     14.542977096500000
N      13.615801567200000      7.584381078400000     13.262833517300001
N      14.037470253200000      7.393931201900000     15.561439983000000
C      13.594643804900000      7.431176793200000     16.840313438599999
N      12.343540666899999      7.645413949100000     17.272317311999998
C      11.493656123699999      7.860157290500000     16.250386467599998
H       5.662475840900000      6.073620972400000     18.533670814400001
H       6.978188055000000      5.081232862500000     17.853569298499998
H       7.800040168500000      6.680173972400000     19.658450385999998
H      10.008360818300000      8.610023060000000     18.318590716599999
H       7.522614973700000      8.829251474099999     16.515628415799998
H       8.202307292700000     10.133555600299999     17.514911125299999
H       6.176519644600000      8.666781737699999     18.496206812699999
H       8.709136878900001      8.602602021299999     14.754320174700000
H      13.068303065100000      8.078623655099999     12.568987045500000
H      14.633485583000001      7.549448149700000     13.106371782000000
H      14.365043174100000      7.292563140700000     17.595352843400001
P       7.234803720400000     10.640863915500001     20.319108757399999
O       6.351186735400000     10.523289392800001     21.515820994999999
O       6.894197848200000     11.391611402700001     19.070918437900001
O       8.736706315299999     11.168061410300000     20.772284766900000
C       9.332009940000001     10.582894216300000     21.958059802200001
C      10.752991572499999     11.098317989900000     22.133835506600001
O      11.610652703500000     10.569743619800001     21.058234778100001
C      10.905945527100000     12.633721126399999     22.113276122199998
O      11.901130814300000     12.996782572600001     23.101080142800001
C      11.333319519700000     12.916824244200001     20.665898815700000
C      12.102427489600000     11.650214440599999     20.243557915400000
N      11.934081934300000     11.330339730600000     18.806029679200002
C      10.755680768600000     11.434710334000000     18.066257661900000
N      10.938987027200000     11.284219531100000     16.762783449000001
C      12.308411030400000     11.065226087899999     16.629154916899999
C      13.130007236399999     10.934626148300000     15.493375204299999
N      12.648839631200000     11.065104062900000     14.216069424800001
N      14.458880998800000     10.729453913600000     15.684111278500000
C      14.936184074800000     10.675822503899999     16.954048936200000
N      14.256875571600000     10.850722076500000     18.096048364200001
C      12.942609954400000     11.059099121699999     17.884162959800001
H       8.728953391499999     10.840926295299999     22.839565398100000
H       9.357763856400000      9.490026877100000     21.856906832000000
H      11.150945045900000     10.712005399700001     23.079779336800001
H      13.182766416600000     11.747494238000000     20.387447173599998
H      10.433093091800000     13.039066692000000     20.062330152000001
H      11.934660099600000     13.819711978799999     20.602301453700001
H       9.965030375300000     13.141937629199999     22.342309650899999
H       9.802364380800000     11.591561041400000     18.555046110999999
H      11.657381770300001     10.879085846200001     14.107848921600000
H      13.257602521100001     10.740239315500000     13.452978950900000
H      16.001876387900001     10.477204074199999     17.036414907400001
P      12.337743603600000     14.613883844300000     23.266964526300001
O      12.901539601900000     14.729713747800000     24.641769178200001
O      11.272383662199999     15.480377298500001     22.680630448799999
O      13.599057033699999     14.687289471200000     22.152318174000001
C      14.800055844099999     13.939611934200000     22.458685709000001
C      16.042856973399999     14.792306889300001     22.249120578799999
O      16.168623725600000     15.145715605900000     20.818125199499999
C      16.083600199799999     16.124024543200001     23.040685584100000
O      17.443613447600001     16.274509756299999     23.535475559700000
C      15.643040362900001     17.154641129700000     21.991405639000000
C      16.192175674000001     16.586200598300000     20.681296810300001
N      15.409055419600000     16.981337110900000     19.489274424400001
C      14.070937511200000     17.359421558099999     19.423208562399999
N      13.661324259900001     17.648381072700001     18.195959154800001
C      14.781363961000000     17.430619585999999     17.403791463000001
C      14.963820816900000     17.483033361200000     16.006336551200000
N      13.965181162100000     17.810656391300000     15.145282751900000
N      16.183554494999999     17.150092665700001     15.512189842200000
C      17.166690139499998     16.791006238900000     16.373610311499998
N      17.098093744600000     16.688512826800000     17.708719172300000
C      15.875927061000001     17.011935439799998     18.180328684100001
H      14.779392413500000     13.599098937300001     23.501022015899999
H      14.847818938900000     13.060147301800001     21.799612485299999
H      16.926229601599999     14.198627655099999     22.513663107999999
H      17.220799997699999     16.903533673700000     20.483718606200000
H      14.551535598199999     17.139582663100001     21.988974053500002
H      15.999383812300000     18.158233332500000     22.220137097700000
H      15.392506548200000     16.104331726200002     23.888453144300001
H      13.442893959299999     17.374095409100001     20.301336194699999
H      13.107117665900001     18.171652658500001     15.538699387499999
H      14.145474430100000     17.873755799500000     14.133592480100001
H      18.120634675600002     16.569100064000001     15.902637625100001
P      18.150588500100000     17.711895793899998     23.993456323200000
O      19.142559749800000     17.361891709500000     25.050684887999999
O      17.150294690300001     18.815589332100000     24.066883657700000
O      19.016571906999999     18.019213631900001     22.562012887300000
C      20.105678045600001     17.118352640700000     22.309521537300000
C      20.857738428600001     17.560775238700000     21.069464858700002
O      20.013280159499999     17.387848337099999     19.889195050000001
C      21.311753661400001     19.034477422100000     21.040162452400001
O      22.566521541299998     19.274294984800001     21.724120263000000
C      21.338673601899998     19.342662469800000     19.530821860200000
C      20.209419612900000     18.459377337399999     18.958451701600001
N      18.937541320099999     19.184439028500002     18.758963692999998
C      17.938865106600002     19.499593404100001     19.683355280099999
N      16.879165453999999     20.061103462900000     19.117778793999999
C      17.184993669800001     20.108038248400000     17.759145612800001
C      16.461334958700000     20.540577854700000     16.624844437499998
N      15.217565201399999     21.079631733199999     16.687328344000001
N      17.054008850399999     20.398680045100001     15.407677253499999
C      18.292926635200001     19.858271790400000     15.316241023200000
N      19.067830351700000     19.431620378200002     16.322174057400002
C      18.458337119999999     19.568798058300001     17.517007156500000
H      20.795624384300002     17.106778501200001     23.165471095099999
H      19.730576155900000     16.095717415500001     22.157965359300000
H      21.748384898099999     16.912769670500001     20.951761384499999
H      20.454670109599999     18.055588795300000     17.972528986899999
H      21.203155701299998     20.398627002700000     19.288322159700002
H      22.299852979400001     19.013773899200000     19.114808353400001
H      20.578427304400002     19.646773492400001     21.569059657200000
H      18.051589805500001     19.253722362200001     20.733743621700000
H      14.736863474300000     21.093881471600000     17.576157363400000
H      14.775899110799999     21.447382568399998     15.842023274200001
H      18.677269669099999     19.750386603799999     14.305310721900000
H      23.203082645700000     18.604931399700000     21.414548069199999
C      16.624051045700000     23.957868879500001      7.041605761400000
C      17.610041929400001     22.869594362400001      7.474896198200000
O      17.745989936699999     22.902938595399998      8.942146498800000
C      17.176113284900001     21.430201876500000      7.107283343400000
O      18.356602220700001     20.694233060900000      6.766978011900000
C      16.511481689699998     20.940784641400001      8.404977660400000
C      17.336254961500000     21.623602605999999      9.496454823300001
N      16.582790277000001     21.875350593200000     10.749911387399999
C      16.911149060800000     21.142641216600001     11.916166209800000
O      17.851509323500000     20.353594246200000     11.973647218000000
N      16.070770757500000     21.390873146499999     12.996620497500000
C      15.009672507800000     22.291056721899999     13.055783111800000
O      14.348077813800000     22.432962095800001     14.107783207400001
C      14.755793705400000     23.042178708900000     11.829946001600000
C      13.665390503699999     24.082209965000001     11.833030073000000
C      15.545776798700000     22.789875170199998     10.752154258299999
H      16.614541511300001     24.048840955700001      5.948599535500000
H      16.910094958199998     24.923552983800001      7.472623246500000
H      18.603020344899999     23.058711069600001      7.054892704900000
H      18.208306750700000     21.032751456100002      9.780467507399999
H      15.466432046400000     21.271682038200002      8.450156761800001
H      16.530245974800000     19.858387531500000      8.463715997700000
H      16.466939807799999     21.419200454599999      6.269802441900000
H      15.431410521000000     23.329219737199999      9.818745401699999
H      12.696840575000000     23.633869584500001     12.085516043400000
H      13.582646119700000     24.571727456600001     10.856538978200000
H      13.859081570800001     24.848532348700001     12.593617003600000
H      16.364233598300000     20.929923049900001     13.907891604100000
P      18.233084297700000     19.090297582700000      6.215097582900000
O      19.017953835099998     19.024234243599999      4.953100247700000
O      16.814229026300001     18.644318197899999      6.391304875000000
O      19.066878505799998     18.351825288499999      7.441053894900000
C      20.467761220300002     18.659645024900001      7.632899452200000
C      21.040986822899999     17.790983967199999      8.752572986900001
O      20.319128222300002     18.065302978300000     10.006593516500001
C      20.942554227100000     16.265869429599999      8.535666874700000
O      22.064585937200000     15.642438534500000      9.228625035600000
C      19.606804894000000     15.932666182700000      9.197663188100000
C      19.610807825199998     16.867431934199999     10.413605816400000
N      18.264398670399999     17.220921885500001     10.928483114000000
C      18.032385194800000     17.130123748500001     12.316853150100000
O      18.898812750400001     16.850664647700000     13.147545187400000
N      16.708995092999999     17.347310725300002     12.688697456300000
C      15.636664387700000     17.614888620100000     11.847054632300001
O      14.473283314600000     17.726974152899999     12.319520079400000
C      15.952402961300001     17.738787751000000     10.439988853299999
C      14.835363985100001     17.999587958300001      9.458608091000000
C      17.247290017800001     17.558413962600000     10.057446291500000
H      21.020465494800000     18.488381126899998      6.698757262700000
H      20.568834257300001     19.716802177000002      7.914884549300000
H      22.090610918900001     18.068819194900001      8.909957137999999
H      20.130716881400001     16.415670739900001     11.257557362400000
H      18.798139789099999     16.165703598600000      8.504993376300000
H      19.560720354699999     14.889350204299999      9.477269672700000
H      20.961639430999998     15.985330593800001      7.478528630600000
H      17.551314588699999     17.670192825099999      9.022894532100000
H      14.081580040500000     17.204794192600001      9.530894808099999
H      15.213569295899999     18.038471332000000      8.432406609399999
H      14.320584066800000     18.941370724399999      9.686363984500000
H      16.524212091700001     17.273357077800000     13.718828038900000
P      22.138705497400000     13.973402765800000      9.346730953500000
O      23.554845456900001     13.649714662499999      9.689030508800000
O      21.349732588199998     13.359150855199999      8.236823238100000
O      21.187237886300000     13.698881546899999     10.717881208400000
C      21.749669658900000     13.833928300600000     12.043187218800000
C      21.618995736900001     12.515495437300000     12.801292593399999
O      20.183594959600001     12.256005657099999     13.060585908900000
C      22.166665596000001     11.291834967800000     12.002369164799999
O      23.229081441900000     10.590819443499999     12.731914926600000
C      20.883106776000002     10.507709758800001     11.642373653900000
C      19.924947647300002     10.844380522000000     12.793293358400000
N      18.468004100500000     10.666035422600000     12.555650380399999
C      17.630654947299998     10.653719930699999     13.703604525399999
O      18.060399645800000     10.765444078800000     14.850536331500001
N      16.272330682700002     10.532704642400001     13.429307965600000
C      15.678611013199999     10.397553354499999     12.173731137200001
O      14.434264653100000     10.309609878800000     12.061646888300000
C      16.592277062400001     10.388837819500001     11.048377662200000
C      16.025911548100002     10.273227481099999      9.658756946700001
C      17.918610967900001     10.542371983000001     11.292663549700000
H      22.811801909900002     14.098647914800001     11.980663311800001
H      21.206831380499999     14.626569345900000     12.576394419300000
H      22.132066843800001     12.573342622400000     13.767398977399999
H      20.149564745799999     10.266480444400001     13.688267329400000
H      20.532352250900001     10.950766886700000     10.705638585899999
H      21.062147476900002      9.441410340199999     11.529489676800001
H      22.670405406499999     11.634752988500001     11.099085458199999
H      18.629478526400000     10.589331416300000     10.479157030700000
H      15.463064608200000      9.338999268400000      9.544378639300000
H      16.820035177899999     10.303103309999999      8.906220595400001
H      15.331493474200000     11.097701803400000      9.461526270100000
H      15.637420677200000     10.562664901900000     14.267456863500000
P      23.040645856499999      9.355861802500000     13.785551250699999
O      24.350240509199999      9.102779792400000     14.473119198499999
O      22.269460878400000      8.232987641099999     13.149749922900000
O      21.988093572600000     10.064942290199999     14.878662497800001
C      22.373667708999999     10.250705399799999     16.251526411000000
C      21.935002290800000      9.069577521399999     17.111670373599999
O      20.477026074400001      9.061271115800000     17.221250833700001
C      22.312891002000001      7.682785421600000     16.554680596299999
O      23.652356740100000      7.277184523800000     16.893895855499999
C      21.214040547400000      6.785157094300000     17.135442402599999
C      19.974188688500000      7.712968718900000     17.153708371499999
N      19.056060649199999      7.564803805800000     15.984542092700000
C      17.665609415399999      7.542406806500000     16.249886400800001
O      17.185928615900000      7.563583192300000     17.387547361100001
N      16.865219133699998      7.467496325400000     15.116428490700001
C      17.290753503700000      7.374667567100000     13.790754332800001
O      16.453867267700002      7.311843913100000     12.859389887900001
C      18.726131158200001      7.377059430400000     13.590913187200000
C      19.262680701299999      7.232369052300000     12.189526228000000
C      19.528687311999999      7.514815736900000     14.681426804099999
H      23.460444262999999     10.371053142099999     16.334584294999999
H      21.874288510700001     11.159898476900000     16.605696902199998
H      22.369354744399999      9.177102441800001     18.119854453300000
H      19.330641541900000      7.538997048000000     18.015227519900002
H      21.050123238699999      5.870220727800000     16.560640214399999
H      21.469992171400001      6.510172742300000     18.165738953599998
H      22.226521810900000      7.690145658600000     15.468761680000000
H      20.598681351700002      7.608514073200000     14.542871976700001
H      18.983030327900000      6.253849449600000     11.776665885000000
H      20.348936548899999      7.336846880700000     12.181436174500000
H      18.817882608700000      7.982065584000000     11.527138697900000
H      15.830106644500001      7.442894688600000     15.295733278700000
H      24.207083718900002      7.699881911100000     16.199040251100001
C      12.917813008000000     14.476459792800000     16.456062276800001
C      12.874811124500001     14.456460705400000     17.835363803800000
C      14.034212475500000     14.210289520700000     18.599715838700000
C      15.228111050200001     13.958026954499999     17.964637505500001
C      15.325285904999999     13.968903120500000     16.545623790600001
C      16.556060531200000     13.737605389200001     15.889209171399999
C      16.592667978600002     13.808910941100001     14.513682411300000
N      17.644946905899999     13.663025134100000     13.625184766200000
C      17.167379766200000     13.792680043400001     12.330679802200001
C      17.872808552799999     13.667275198900001     11.128207603500000
C      17.147847670099999     13.782624111200001      9.947375046700000
C      15.757635929399999     14.025795440000000      9.950029860900001
C      15.058282604200000     14.164564044900001     11.139871739300000
C      15.758504768300000     14.058587180500000     12.362513350800000
C      15.408703057400000     14.098800819699999     13.755637927100000
N      14.236021818299999     14.373522864200000     14.392541946000000
C      14.141221031900001     14.271996034600001     15.782336851500000
C      13.082571966800000     14.833445836999999     13.582022458699999
H      11.999517744000000     14.630903543700001     15.908105712199999
H      11.930044935400000     14.628460142400000     18.337861061800002
H      13.995118599400000     14.247065429299999     19.681351566699998
H      16.122659563599999     13.785277350699999     18.551744216600000
H      17.446641780600000     13.517366041600001     16.467239003300001
H      18.583798593200001     13.319027130000000     13.836397755900000
H      18.940819666500001     13.479534236099999     11.126505964900000
H      17.669030040999999     13.682765350400000      9.001165827600000
H      15.231317980100000     14.116683252100000      9.005020223700001
H      13.992265400699999     14.344738622600000     11.116316964799999
H      13.455979750099999     15.490168797100001     12.797425589099999
H      12.553241694300000     13.966532034100000     13.175274095000001
H      12.419591071199999     15.425891063300000     14.204545284500000
H       6.356158277800000      6.470104033700000     16.940763166100002
H      15.606085193400000     23.720327033000000      7.374336389700000
