91

N      11.608007797200001     -2.401856370700000      4.699700498600000
C      11.582709774000000     -3.000220644500000      5.957314750600000
N      10.357637770800000     -3.254563594400000      6.378993675400000
C       9.537070640600000     -2.808425860100000      5.348333224100000
C       8.132415758600001     -2.792520051700000      5.198678994400000
N       7.274666619500000     -3.258869844200000      6.145190220100000
N       7.632363928000000     -2.234396917800000      4.065325608000000
C       8.476932074400001     -1.752771568900000      3.120609304400000
N       9.815500796400000     -1.731031169400000      3.153382872700000
C      10.291279613000000     -2.270597186000000      4.291723472900000
H      12.492536952900000     -3.222923350200000      6.498811668300000
H       7.662766713900000     -3.856954255200000      6.865206488900000
H       6.282513600400000     -3.372582021300000      5.894910091100000
H       7.990428104700000     -1.326898608500000      2.245722855600000
N      11.535227087499999      3.997271220300000      7.134206808400000
C      10.248218351500000      4.081784692200000      6.583676743200000
O      10.025780341300001      4.559607484500000      5.472893150500000
N       9.266518354900001      3.555845802200000      7.411105418300000
C       9.450773364200000      2.946804970900000      8.652725792700000
O       8.472536679599999      2.475785018400000      9.271551805300000
C      10.826716746100001      2.880910863700000      9.140402561600000
C      11.084201996299999      2.207994901000000     10.460174858700000
C      11.801607968700001      3.420805431300000      8.363163043800000
H      12.846286315700000      3.420166953200000      8.658152799300000
H      10.517741360800001      2.693390731100000     11.262295790400000
H      12.146612719900000      2.227361800200000     10.720144865700000
H      10.749489912500000      1.163879731600000     10.432647578799999
H       8.280286461999999      3.598952145800000      7.042452457300000
N       2.938376626600000      4.313177656700000      4.956556592100000
C       2.208896914800000      3.833080829000000      6.042327802600000
N       2.974782125200000      3.397791712900000      7.023737964900000
C       4.273872413400000      3.615549910800000      6.572913902600000
C       5.535363778400000      3.358385137600000      7.155180479800000
N       5.694750714900000      2.750751266400000      8.361479238199999
N       6.636383206000000      3.696596633400000      6.435836218000000
C       6.498989361300000      4.250638325400000      5.207750783300000
N       5.357555448200000      4.515796314800000      4.554191559000000
C       4.278499389000000      4.187338089400000      5.289140401100000
H       1.127207505600000      3.828701362100000      6.041501960200000
H       4.886274859800000      2.701076244400000      8.969632404200000
H       6.636002530000000      2.718583255400000      8.775627881000000
H       7.433667081900000      4.501481836200000      4.710628883800000
N       3.193416204300000     -1.568131505400000      1.988129853200000
C       4.540082230600000     -1.416124594500000      2.333831652500000
O       5.312707585100000     -0.695471033100000      1.691263092400000
N       4.895824292700000     -2.107630693300000      3.476929741300000
C       4.040345743000000     -2.833456769800000      4.319349695500000
O       4.484558093400000     -3.352851748700000      5.361023763700000
C       2.641641945700000     -2.914680738100000      3.902643880300000
C       1.675033539400000     -3.661387612500000      4.781393709100000
C       2.289580324800000     -2.293090197900000      2.749389192700000
H       1.274907958300000     -2.312661831800000      2.365252093100000
H       0.666276167700000     -3.657824181300000      4.358569963400000
H       1.641679427900000     -3.205406631300000      5.777423846000000
H       1.995859492500000     -4.699582855300000      4.919295042300000
H       5.923442493500000     -2.103677008600000      3.727018704100000
C       9.211717425400000      0.002014922100000      7.355624464700000
C      10.501881975000000      0.291599025300000      6.958772619400000
C      10.769204706100000      0.869320738100000      5.698318920200000
C       9.730044244500000      1.157626236500000      4.844412052500000
C       8.386324119299999      0.870820168800000      5.208561755700000
C       7.319567629200000      1.150967483400000      4.328148989000000
C       6.041854768500000      0.874923437800000      4.748249393700000
N       4.833248125800000      1.105127609200000      4.114345640800000
C       3.800761714800000      0.646679333600000      4.923305865700000
C       2.428212056100000      0.652933866700000      4.670365321800000
C       1.583229946400000      0.166093614300000      5.665013234900000
C       2.089579197100000     -0.300086332000000      6.894315775100000
C       3.454579774700000     -0.306864635200000      7.149129527900000
C       4.344948800700000      0.146852526000000      6.152666694300000
C       5.775262166400000      0.282881909200000      6.026740504200000
N       6.809750415400000     -0.038358528500000      6.850700478900000
C       8.126685965100000      0.272531372300000      6.492952211900000
C       6.513934864400000     -0.736326538000000      8.128105607500000
H       9.051413510600000     -0.400115838100000      8.344456871400000
H      11.318851004800001      0.080146270900000      7.639899295300000
H      11.790276748800000      1.095332973300000      5.410091987200000
H       9.916456311499999      1.611247257300000      3.877264744600000
H       7.512491248700000      1.586193019700000      3.353289697700000
H       4.761687697100000      1.286432937100000      3.119406209100000
H       2.039603329300000      1.026628821800000      3.728544787400000
H       0.511326164700000      0.154694857700000      5.493141318300000
H       1.401779711300000     -0.649530790700000      7.656858200500000
H       3.810445131600000     -0.651172431000000      8.110221538399999
H       5.687492667200000     -1.421485383600000      7.957931856700000
H       7.370109616200000     -1.331217606100000      8.428235939000000
H       6.268300715300000      0.001530478000000      8.895464903800001
H       2.576634485800000      4.757151621400000      4.119707161600000
H      12.276772448499999      4.407884486500000      6.576867396000000
H       2.908225792500000     -1.123359922900000      1.122199404300000
H      12.424258489100000     -2.146925386400000      4.154941987100000
