89

N      12.486595045500000     11.548843642800000     19.563711369600000
C      13.624344984900000     11.539287233300000     18.711184972100000
O      14.751181206300000     11.436919882200000     19.228132737500001
N      13.401310654200000     11.647405375500000     17.369972245800000
C      12.152489737700000     11.768958423799999     16.885365195300000
N      12.018420621800001     11.900381510600001     15.548551996500001
C      10.997931851000001     11.791065666500000     17.747721865700001
C      11.210523487000000     11.666907496600000     19.084744589300001
H      10.410067132700000     11.658881191900001     19.816545384000001
H       9.995314162100000     11.887741532300000     17.349484577900000
H      12.857840541700000     11.849500780900000     14.937844265500001
H      11.098007266600000     11.876421248600000     15.129808596800000
N      16.097539857499999     18.203380378500000     19.693913588499999
C      14.707283546299999     18.333663765299999     19.626448815600000
N      14.251928267100000     18.269801193900001     18.394825577199999
C      15.385981019600001     18.102273282799999     17.605180378299998
C      15.533372719100001     17.978387922600000     16.190024856699999
O      14.641246622200001     17.942740798399999     15.311276974800000
N      16.896346472200001     17.853756456700001     15.812870850800000
C      17.960893814700000     17.765869109499999     16.688285457399999
N      19.191395029999999     17.502841529299999     16.145952054500000
N      17.826569892399998     17.856229901199999     18.010517158199999
C      16.546385502800000     18.051510675300001     18.398308549700001
H      14.108059519499999     18.474668751700001     20.515912120100001
H      17.077258028900001     17.837209995700000     14.784181246399999
H      19.973263726700001     17.698530494300002     16.761016335499999
H      19.346148500500000     17.643500827899999     15.135916949400000
N      18.914567700399999     18.261716892399999     11.195082214499999
C      18.647507385600001     17.974237647399999     12.556110416899999
O      19.602962965100001     17.687499711800001     13.306842067300000
N      17.347605706600000     18.017787707899998     12.963466405900000
C      16.358622798799999     18.305177476499999     12.093603005400000
N      15.096688564400001     18.310874868900001     12.567152757700001
C      16.624962336500001     18.583665760399999     10.706802403599999
C      17.922341572400001     18.560668443000001     10.300968603099999
H      18.230216897799998     18.767084561699999      9.281908764200001
H      15.827125139100000     18.811289471700000     10.010889258800001
H      14.919720054800001     18.187836417800000     13.582616472600000
H      14.339648891700000     18.617570673900001     11.970779730900000
N      18.799140886699998     11.170181098500001     13.149001460899999
C      18.096559537499999     11.312628303300000     11.946159106800000
N      16.814258840899999     11.525209540900001     12.132413478700000
C      16.646557133999998     11.510899226399999     13.515650024599999
C      15.482915587999999     11.705359786300001     14.317796583100000
O      14.314927586700000     11.978679927700000     13.949009864700001
N      15.776163191100000     11.598102003299999     15.702814688400000
C      17.033074770100001     11.376651716100000     16.240561355600001
N      17.132679867299998     11.373377704199999     17.599559073000002
N      18.127717628599999     11.229022150100000     15.493430941900000
C      17.873539883599999     11.290679436300000     14.167404672900000
H      18.595885754200001     11.250131766000001     10.988715708599999
H      14.949974374000000     11.652563037400000     16.336038001399999
H      18.002587042900000     11.019158998100000     17.976892117700000
H      16.292355516600001     11.348139741100001     18.193429103400000
C      13.396386140000001     14.899682592500000     17.446271861300001
C      13.351563801399999     14.894582208599999     18.825495405700000
C      14.533552883600001     14.802496056900001     19.592408587000001
C      15.751084024700001     14.708185352199999     18.960483281100000
C      15.846252960099999     14.722313441700001     17.544276302000000
C      17.101894319600000     14.673320916900000     16.899071797100000
C      17.124206795399999     14.713347323200001     15.527735771800000
N      18.197264120000000     14.709697331099999     14.652896141199999
C      17.724956292800002     14.793848174000001     13.349488417200000
C      18.458441622700001     14.832434177700000     12.164916038699999
C      17.743614382200001     14.871658598200000     10.970941164099999
C      16.333781217700000     14.833168187300000     10.955824549600001
C      15.603984969100001     14.786999844000000     12.133524143500001
C      16.293390868199999     14.810602687499999     13.362895337399999
C      15.917237021200000     14.793174165200000     14.751069584600000
N      14.716430723700000     14.894453184100000     15.380527652300000
C      14.637016112300000     14.829845518200001     16.773278895499999
C      13.497176026900000     15.168552964100000     14.578567410800000
H      12.469803116300000     14.943230387800000     16.892768228900000
H      12.388505233100000     14.957111132400000     19.321426425999999
H      14.477983295300000     14.792246654600000     20.675874796999999
H      16.668355890800001     14.623524105100000     19.534215858500001
H      18.014866153200000     14.627069436799999     17.481722182199999
H      19.147565618100000     14.915469365200000     14.935610421000000
H      19.542579972799999     14.847754246499999     12.183054157999999
H      18.283417652499999     14.904262919400001     10.029280671400000
H      15.813722290799999     14.805680235700001     10.004243819699999
H      14.528205529499999     14.691223601600001     12.094090213499999
H      13.794125804600000     15.727889190999999     13.696486196600000
H      13.023731888300000     14.225749266399999     14.301077264400000
H      12.831381632299999     15.809034220699999     15.149829851600000
H      12.672698029699999     11.434892988500000     20.555133687700000
H      19.781768107300000     10.952768329900000     13.270739961500000
H      19.891123731200000     18.250390299599999     10.918191743900000
H      16.683990149500001     18.239110986200000     20.520059634500001
