89

N       5.470076558900000     -4.607437232100000      1.828339579500000
C       5.474732243800000     -4.486097680700000      3.222296152400000
N       4.281741828700000     -4.227103006900000      3.710375757200000
C       3.444182419000000     -4.184322850900000      2.599031900200000
C       2.044961982000000     -3.930816672100000      2.492686807400000
O       1.223263429800000     -3.681110599000000      3.406292630300000
N       1.606766500300000     -3.951741349900000      1.144261177600000
C       2.416280141800000     -4.165241858900000      0.042937801900000
N       1.826628891700000     -4.056047059400000     -1.182277614800000
N       3.722974125200000     -4.405805445700000      0.136924608900000
C       4.166730963900000     -4.414793529700000      1.414968189800000
H       6.382751748600000     -4.604897362400000      3.798296392900000
H       0.579709852500000     -3.830404242500000      1.009009757700000
H       2.366439479500000     -4.376228099500000     -1.975679324200000
H       0.812956777600000     -3.935501662400000     -1.283864694200000
N       4.847161955300000      2.315485714700000     -1.340112221900000
C       3.470003526100000      2.140305812300000     -1.046607932500000
O       2.690458527300000      1.844358228000000     -1.975034092500000
N       3.082636335400000      2.291723383300000      0.250676561600000
C       3.977739694000000      2.593476038100000      1.214005452700000
N       3.517317990200000      2.687490776200000      2.476531424200000
C       5.374339127800000      2.791112892000000      0.916683646000000
C       5.763435517800000      2.648449763100000     -0.378431476600000
H       6.787991604600000      2.782044740200000     -0.708023448600000
H       6.088667249500000      3.045441073700000      1.689539107100000
H       2.501812255300000      2.580405209000000      2.674084712600000
H       4.136013134400000      2.987844406800000      3.218029239400000
N      -3.600237272300000      3.044439394700000      1.645522925200000
C      -3.500794418200000      3.041050853900000      3.041903139200000
N      -2.269500600100000      2.852510281200000      3.459610356600000
C      -1.512333285300000      2.738278971400000      2.295816905500000
C      -0.117652098000000      2.518483330700000      2.107682503800000
O       0.775211352300000      2.356524886200000      2.976221698800000
N       0.225690837800000      2.455002338300000      0.734399916300000
C      -0.663422709200000      2.572608553600000     -0.320207692000000
N      -0.147317811500000      2.455052237500000     -1.571228293500000
N      -1.971223282400000      2.769290771200000     -0.149368293900000
C      -2.324521928300000      2.852450941900000      1.152871547900000
H      -4.369120394900000      3.182497187700000      3.671497546100000
H       1.241231954400000      2.342199301200000      0.533600523500000
H      -0.771716828000000      2.625355715000000     -2.347545985200000
H       0.846853227900000      2.269316546100000     -1.742943928400000
N      -3.148911012500000     -3.963301379200000     -0.571929562700000
C      -1.761583977900000     -3.744298953800000     -0.398596645400000
O      -1.062613581600000     -3.485175171900000     -1.403811723100000
N      -1.268092978800000     -3.813276952600000      0.866371822000000
C      -2.083600649800000     -4.043634406300000      1.918289691900000
N      -1.524866743500000     -4.075170735900000      3.139933749100000
C      -3.499883979700000     -4.249210137500000      1.748976899100000
C      -3.989135260300000     -4.212006705000000      0.481725318700000
H      -5.035858868600000     -4.365605340400000      0.243570320300000
H      -4.150364939400000     -4.433937811200000      2.594653696600000
H      -0.503180729300000     -3.925405824100000      3.257265471300000
H      -2.094897705000000     -4.263873538300000      3.953402427200000
C       4.157305409700000     -0.933565823200000      2.903279725700000
C       5.432551951200000     -1.038364384300000      2.383329216700000
C       5.655216413300000     -1.056756984200000      0.987364524100000
C       4.584010065000000     -1.001286868900000      0.125475573600000
C       3.254501672200000     -0.898633955600000      0.616930008500000
C       2.159192869100000     -0.856925382600000     -0.272738570300000
C       0.899225830100000     -0.783860538400000      0.261568622000000
N      -0.327143924100000     -0.724500357900000     -0.375920238900000
C      -1.331273109600000     -0.666998531900000      0.582288521800000
C      -2.709210834000000     -0.624594088000000      0.376558628700000
C      -3.522623038100000     -0.572470822300000      1.505671473400000
C      -2.976632801200000     -0.560482753500000      2.806428285600000
C      -1.603746891400000     -0.595290483200000      3.010126695600000
C      -0.746693746400000     -0.645197043400000      1.890683979300000
C       0.678220404400000     -0.707338744400000      1.679409801600000
N       1.738596938000000     -0.682704464000000      2.530453160200000
C       3.040807417700000     -0.832402468000000      2.040021773700000
C       1.477799983600000     -0.503521758800000      3.986729826200000
H       4.026051558900000     -0.988494346000000      3.974193212200000
H       6.271302105600000     -1.135615089600000      3.065022164300000
H       6.666188608700000     -1.138853051600000      0.601084747200000
H       4.729466954100000     -1.049160479500000     -0.948990023500000
H       2.321184189300000     -0.869472377000000     -1.344086092400000
H      -0.479200994900000     -1.079079790700000     -1.313845961300000
H      -3.121729939600000     -0.619370845300000     -0.626346509600000
H      -4.600826987800000     -0.534234393600000      1.383066730000000
H      -3.639154180800000     -0.503885883100000      3.663312816200000
H      -1.214366180400000     -0.575552772600000      4.017921416400000
H       1.188713146200000     -1.467314821100000      4.411334336700000
H       2.372221422600000     -0.129054459200000      4.474573586700000
H       0.709970279600000      0.259176928400000      4.095908200900000
H      -4.428770077700000      3.205103820000000      1.084135574800000
H       5.111271532500000      2.233746863000000     -2.317070274300000
H       6.252294640900000     -4.828361666300000      1.222720215900000
H      -3.490896996000000     -3.945793590800000     -1.527547474900000
