89

N      12.383236719799999     11.914378904599999     19.194273162300000
C      11.234114906900000     12.267146867199999     18.478088322300000
N      11.452680305099999     12.353893164000000     17.184794588199999
C      12.801106871700000     12.039283345099999     17.030882045399999
C      13.625316153400000     12.011850272000000     15.870590674700001
O      13.313903539700000     12.260427601300000     14.678178803900000
N      14.969117908899999     11.696122818899999     16.185875075399998
C      15.458744730799999     11.458697172800001     17.458012448000002
N      16.791696102700001     11.207583484100001     17.562982741199999
N      14.693517283400000     11.483568119999999     18.547721137700002
C      13.401456664600000     11.770978787600001     18.274804630199998
H      10.287604883100000     12.436827442300000     18.973664829499999
H      15.612666621300001     11.627777734600000     15.369773994899999
H      17.153290099700001     11.001585182299999     18.483947984499999
H      17.429752979300002     11.292181685899999     16.765726158800000
N      15.594832942800000     18.583632844299999     19.719168393800000
C      14.219342578499999     18.835902303000001     19.650056457900000
N      13.746827886400000     18.729028321500000     18.429097502000001
C      14.850912809800001     18.401424233800000     17.645573823500001
C      14.967738978600000     18.154061308700001     16.245442262800001
O      14.074810060800001     18.148288509099999     15.363756156299999
N      16.307315254700001     17.851459448300002     15.878720878899999
C      17.375019330000001     17.749883844700001     16.750290917400001
N      18.567861799100001     17.333332005700001     16.223243448400002
N      17.269378188600001     17.971851772099999     18.057698051300001
C      16.012497085200000     18.302945325200000     18.435083894500000
H      13.645877985600000     19.091337583400001     20.531166456600001
H      16.467265960399999     17.730457342699999     14.857970229599999
H      19.379697514899998     17.507089114300001     16.803837641400001
H      18.707679241400001     17.316211511599999     15.204612501700000
N      18.304754966800001     17.849150593600001     11.235943007600000
C      17.992849235600001     17.567711476200000     12.590371078500000
O      18.896274018300002     17.146531720199999     13.339313860800001
N      16.704210191000001     17.767456450899999     12.990943870900001
C      15.770926993700000     18.216148310700000     12.128272944600001
N      14.515855279400000     18.365127049800002     12.602975946000001
C      16.083294151400001     18.499357057000001     10.750629979099999
C      17.369233728899999     18.307655419700001     10.349310258199999
H      17.709715561399999     18.501022848100000      9.337986247400000
H      15.330875240299999     18.859316011400001     10.059952507700000
H      14.343607800699999     18.284947741400000     13.626237664700000
H      13.821058446400000     18.830171757999999     12.032680396300000
N      18.794056491999999     10.735439548500000     13.056298043200000
C      17.983543124699999     11.223956798700000     14.113021249299999
O      18.523300907199999     11.524147402100001     15.197021543300000
N      16.650140115199999     11.351481962899999     13.869388595400000
C      16.125936098699999     11.043628001600000     12.666234765800001
N      14.805915039600000     11.248743459700000     12.504458965600000
C      16.943628764000000     10.535608276100000     11.593495480900000
C      18.273971069300000     10.390310737400000     11.836502385899999
H      18.973133521000001     10.009144236999999     11.100122285599999
H      16.520740061500000     10.274703005199999     10.631295209699999
H      14.232592439099999     11.613584327200000     13.291256534900000
H      14.353882022600001     10.995175855099999     11.636380430399999
C      14.774547494200000     14.769543023600001     11.601277809600001
C      15.580346863500001     14.563860413400000     10.496559432100000
C      16.969499526000000     14.346962468299999     10.637887900300001
C      17.529869059599999     14.324984725200000     11.895930407200000
C      16.737562519400001     14.527543865100000     13.057305300700000
C      17.319188085499999     14.484831556700000     14.344233829800000
C      16.493211939799998     14.639017210700001     15.425981697299999
N      16.777470811800001     14.596442312300001     16.775539035200001
C      15.619744913200000     14.849904852800000     17.501838875899999
C      15.461269586900000     14.926604000499999     18.884350158000000
C      14.181046775000000     15.178979689700000     19.369642202400001
C      13.082295773500000     15.334526610599999     18.501333001300001
C      13.236393264100000     15.255405168099999     17.126953539199999
C      14.524527629800000     15.029226311300000     16.595178312900000
C      15.086437888400001     14.906477811600000     15.276871816700000
N      14.545907089500000     15.017146154000001     14.034694717500001
C      15.328929426100000     14.775276308400001     12.902889896000000
C      13.104140880999999     15.377389649200000     13.928409499300001
H      13.712777382400001     14.906649396000001     11.453036148700001
H      15.131966417399999     14.562025327000001      9.507791123700001
H      17.586253068600001     14.189438039400001      9.758641895700000
H      18.594408440399999     14.159282539900000     12.029102965000000
H      18.381324892799999     14.306817926200001     14.462641686800000
H      17.712326452700001     14.549546589600000     17.158460465800001
H      16.306668372000001     14.793587108400001     19.550625376199999
H      14.025905009300001     15.251506153499999     20.441693949000001
H      12.097149103500000     15.520285664899999     18.913367335099998
H      12.369143229000001     15.348340250600000     16.491062895799999
H      12.505031587500000     14.487077249200000     14.134653988100000
H      12.912103562500000     16.175713122499999     14.643432906799999
H      12.894994647000001     15.769699362600001     12.938800357600000
H      16.192423108500002     18.623637517100001     20.537032598200000
H      19.273188143199999     17.715980431599998     10.962148061300001
H      19.779754904299999     10.611858901500000     13.265963978000000
H      12.470421059200000     11.775217764800001     20.194546445899999
