89

N      12.636574376900001     12.720638615100000     20.257078763399999
C      11.392017616300000     12.727402018399999     19.636107263700001
N      11.473471421099999     12.689319512999999     18.316196005599998
C      12.824850679400001     12.654697756999999     18.046399349200001
C      13.538229830600001     12.523165500199999     16.799230144500001
O      13.067040924200001     12.514391893799999     15.648460785899999
N      14.933301897400000     12.406320754299999     16.998823882800000
C      15.568368143300001     12.491559134199999     18.217532897500000
N      16.908963467700001     12.441181951300001     18.223806749800001
N      14.908721340200000     12.613909245900000     19.394072236300001
C      13.583935071200001     12.665115586200001     19.249418022899999
H      10.472149912700001     12.763578595500000     20.204615040800000
H      15.512864992300001     12.291783465100000     16.129579039199999
H      17.367296379599999     12.502553991999999     19.124267321300000
H      17.471890731900000     12.401237620400000     17.353409706899999
N      15.557239147500001     19.218884464500000     19.554032421700001
C      14.171140287600000     19.318757453500002     19.556118156699998
N      13.642704051799999     19.145553966600001     18.354457228299999
C      14.719940037100001     18.936956670000001     17.521949453400001
C      14.776652187300000     18.707397720900001     16.105268737100001
O      13.820790749300000     18.608560323999999     15.310320075200000
N      16.109451364000002     18.585522458900002     15.648324017700000
C      17.234902561799998     18.657565499600000     16.445416255500000
N      18.435974762800001     18.542016112399999     15.843050480500001
N      17.187591820600002     18.852996261600001     17.777632062500000
C      15.938514473000000     18.978934228600000     18.241098279500001
H      13.614319322300000     19.503405901200001     20.464879589100001
H      16.228477201000000     18.418721286299998     14.619214233599999
H      19.253436814000001     18.661554061899999     16.426970999000002
H      18.538646846399999     18.362453247000001     14.828563346999999
N      17.865412099400000     17.876843636000000     10.977384003799999
C      17.686335093499999     17.997919818400000     12.370434480900000
O      18.695601303699998     17.937194486199999     13.108354520500001
N      16.416442020500000     18.166948919799999     12.834083302700000
C      15.370292048300000     18.175473752300000     11.979272395600001
N      14.139656874900000     18.320177003400001     12.511971032000000
C      15.545028835100000     18.015615587599999     10.563014249900000
C      16.816061270900001     17.864330601100001     10.099062435200000
H      17.057743028299999     17.732007184299999      9.051340067500000
H      14.699548220100001     18.006122123299999      9.886762320500001
H      14.017194203500001     18.461740294599998     13.530029784200000
H      13.335697490199999     18.411519975000001     11.905771823200000
N      18.609941672200002     11.607337536799999     13.661568987500001
C      17.832960809799999     11.958071606200001     14.790155122800000
O      18.422236484300001     12.273457871100000     15.848061756300000
N      16.478508515300000     11.940930353300001     14.647313281500001
C      15.909240323700001     11.603179631400000     13.468784939500001
N      14.564838931100001     11.605190432600001     13.404730130500001
C      16.697318130199999     11.248047886500000     12.321163969700001
C      18.047730959100001     11.259576355700000     12.461050284000001
H      18.731254217800000     11.016691109700000     11.655783632400000
H      16.237014114299999     11.002483072300000     11.373028512399999
H      14.000449735400000     11.931600439100000     14.204715183699999
H      14.103089041800001     11.412009033900000     12.526706137500000
C      13.188623093600000     15.520418921899999     17.302945546699998
C      13.168225645500000     15.746666535199999     18.734660752800000
C      14.349374370700000     15.895002129100000     19.405772141700002
C      15.571739147000001     15.814245228000001     18.692137546200001
C      15.628676868800000     15.603383619500001     17.290315983599999
C      16.856161466600000     15.487747846200000     16.596239404999999
C      16.776026722299999     15.293412846500001     15.197667267100000
N      17.804634718500001     15.145726235300000     14.313067540700001
C      17.325996031300001     14.901933902100000     13.021125169499999
C      18.041287190599999     14.687588143699999     11.858127014400001
C      17.316773065500001     14.440231009100000     10.668395473400000
C      15.916639196500000     14.416746048500000     10.709925873000000
C      15.190154469399999     14.643283462099999     11.896033599700001
C      15.882805653900000     14.908948581600001     13.100198329700000
C      15.564249320900000     15.188782232599999     14.463953722899999
N      14.355371526700001     15.347398115000001     15.165994773900000
C      14.374010592899999     15.500077029300000     16.584482543299998
C      13.103658165400001     15.608018003400000     14.434314571000000
H      12.239943029799999     15.383751024200000     16.802009592200001
H      12.209897363600000     15.801540849100000     19.236732071799999
H      14.366858416800000     16.070765367600000     20.476654046299998
H      16.511449042100001     15.928844152800000     19.223577650900001
H      17.807678095400000     15.546643169999999     17.108439994299999
H      18.783806823300001     15.231199434100001     14.562760389799999
H      19.127297443800000     14.713312543600001     11.865506079499999
H      17.843564532700000     14.261832014099999      9.737403383000000
H      15.364392478499999     14.220079748300000      9.794955975400001
H      14.108021750600001     14.596384943300000     11.871727556100000
H      13.345396727800001     15.837003377200000     13.399862090099999
H      12.435890555700000     14.743030884100000     14.480466064900000
H      12.615809751800001     16.488350169899999     14.863500257000000
H      19.615686299499998     11.593893821500000     13.796783379300001
H      18.819013193499998     17.737102211600000     10.660892136999999
H      16.188770318400000     19.353792422000001     20.335896664400000
H      12.831645779300000     12.732169625899999     21.252051089100000
