165

O       6.726018874900000     -7.891856470200000      3.560182022300000
P       7.300111190900000     -6.320493233100000      3.751716872700000
O       8.777632616000000     -6.442572667000000      3.979641592700000
O       6.344571624000000     -5.560139000700000      4.605273919200000
O       7.018932614200000     -5.711710382900000      2.224185100000000
C       7.707272948200000     -6.247887824500000      1.084800894400000
C       7.336741438000000     -5.429420476300000     -0.152733727300000
O       5.897445053400000     -5.563705410600000     -0.439899885800000
C       7.596828223500000     -3.910670081300000     -0.049360493500000
O       7.940545336100000     -3.445905707200000     -1.391955929800000
C       6.261385081400000     -3.378475700400000      0.480252138400000
C       5.225082232000000     -4.319553955500000     -0.159077786800000
N       4.028261351500000     -4.532543684700000      0.687633352300000
C       3.958121839400000     -4.624286981600000      2.085156060200000
N       2.716662408400000     -4.563224211500000      2.544175783500000
C       1.927657948300000     -4.444013342700000      1.406605709400000
C       0.545961282300000     -4.234705698300000      1.249445624100000
N      -0.292979636400000     -4.044512718900000      2.313698718800000
N       0.050429123400000     -4.145533542200000     -0.013479036400000
C       0.912811127700000     -4.225006321700000     -1.058754502900000
N       2.245047744600000     -4.353598684100000     -1.020774479100000
C       2.713809916700000     -4.447739633300000      0.242928251500000
H       8.796443087900000     -6.214548104300000      1.241277395200000
H       7.405813949400000     -7.293773614500000      0.921236669400000
H       7.871403554400000     -5.831344452300000     -1.021021289900000
H       4.835120448200000     -3.918097520200000     -1.098617332100000
H       6.265252718200000     -3.488456193200000      1.564665069900000
H       6.110135904900000     -2.332931974700000      0.224665672400000
H       8.421383826700000     -3.674652278100000      0.629239666500000
H       4.839450337400000     -4.771432151100000      2.700351570100000
H       0.065323510400000     -4.330796463300000      3.217141038200000
H      -1.308890686200000     -4.074803929300000      2.153245692700000
H       0.444130776300000     -4.153760054100000     -2.038068000100000
P       7.920036428500000     -1.854719242700000     -1.833199735500000
O       8.767871717200000     -1.763892240400000     -3.061814413800000
O       8.019327070099999     -0.939704843600000     -0.655338509200000
O       6.306548245700000     -1.686078304000000     -2.298748367200000
C       5.872933082500000     -2.121071831900000     -3.599265638000000
C       5.584170013000000     -0.916648374900000     -4.501071094000000
O       4.512051832000000     -0.107446557500000     -3.902754108800000
C       6.775073540400000      0.036945443400000     -4.705822480300000
O       6.678766731700000      0.594983445000000     -6.065659838800000
C       6.550764624300000      1.115817444100000     -3.637295107000000
C       5.018352596300000      1.196720067900000     -3.538311545700000
N       4.512699258900000      1.575878170200000     -2.210407806600000
C       5.137527725900000      1.488953878600000     -0.958323173500000
N       4.351694281800000      1.857579346500000      0.037934002100000
C       3.135784080100000      2.165010464900000     -0.566055132800000
C       1.867916734900000      2.471507833500000     -0.022342716200000
N       1.647815480000000      2.626774173600000      1.309310205700000
N       0.821999505600000      2.606763451500000     -0.883557648300000
C       1.041657122900000      2.457761022900000     -2.210252702700000
N       2.191259741400000      2.151136902300000     -2.832495277300000
C       3.208981715400000      1.997672576000000     -1.957222434800000
H       6.627189934000000     -2.761007913800000     -4.073999991400000
H       4.945458866500000     -2.694178835600000     -3.468416275700000
H       5.224256006100000     -1.268535643000000     -5.476682676400000
H       4.597497223700000      1.927817001000000     -4.237830438100000
H       6.996638313600000      0.768394828100000     -2.704014056100000
H       6.997058541700000      2.075241577200000     -3.914208354800000
H       7.726071838000000     -0.482834758100000     -4.562710549300000
H       6.142462715300000      1.100025259400000     -0.844122554700000
H       2.388002377900000      2.329061858000000      1.932206592000000
H       0.675874680000000      2.655880192500000      1.650203544600000
H       0.159619613500000      2.588347147200000     -2.834610210300000
O      -7.432865698900000      4.728673914300000      3.356671978100000
P      -7.802927155100000      3.101656102100000      3.176354178800000
O      -9.275861826000000      2.979597863100000      3.321636542900000
O      -6.770934588200000      2.314272309100000      3.929500121800000
O      -7.388175797100000      2.885455950200000      1.562869100300000
C      -8.255835123600001      3.471000272300000      0.568410040500000
C      -7.561688822300000      3.482627134900000     -0.785103933300000
O      -6.392970767600000      4.403794271400000     -0.750199795800000
C      -6.998826031800000      2.139177848000000     -1.277976692300000
O      -7.989265557700000      1.434489882600000     -2.057691319800000
C      -5.772299012800000      2.560207659700000     -2.108786712500000
C      -5.273143048000000      3.818953961300000     -1.400854994900000
N      -4.169304989100000      3.508772260200000     -0.392724288300000
C      -2.903632217000000      3.224174029600000     -0.925101882900000
O      -2.680340932300000      3.186856930000000     -2.144076925600000
N      -1.921901779000000      2.979612868000000      0.025868641300000
C      -2.080646042800000      3.003228526300000      1.417452758400000
O      -1.101850369400000      2.723703207700000      2.156357103200000
C      -3.404000354500000      3.341973351500000      1.892258087500000
C      -3.666343496400000      3.417344064500000      3.376303985000000
C      -4.385147967100000      3.557561118100000      0.968598120500000
H      -9.181828386899999      2.886694132600000      0.484260880000000
H      -8.519453370600001      4.498397647900000      0.851510797200000
H      -8.263079986499999      3.872129651300000     -1.536246369100000
H      -4.826245076300000      4.545795254600000     -2.083627282400000
H      -5.006358039200000      1.793093757100000     -2.185924953400000
H      -6.107501956700000      2.818018531600000     -3.119232777800000
H      -6.708717101900000      1.540810393900000     -0.417951031100000
H      -5.413412349500000      3.744952955400000      1.254002518000000
H      -4.698244809500000      3.139184414100000      3.614610546000000
H      -3.463460266300000      4.427247755000000      3.761431543200000
H      -2.994038143500000      2.737755521900000      3.907119983000000
H      -0.955910380900000      2.805847726300000     -0.338265335300000
P      -7.871111260400000     -0.223801853300000     -2.155442722300000
O      -8.850572665900000     -0.650195737600000     -3.194110645700000
O      -7.728575161800000     -0.843359309900000     -0.802854841100000
O      -6.314173649100000     -0.373423933100000     -2.772983136800000
C      -6.080667224900000     -0.124741200200000     -4.168784005800000
C      -5.623172590800000     -1.406605164000000     -4.867664045900000
O      -4.481042046300000     -1.985710725100000     -4.146816178900000
C      -6.665752508300000     -2.540484007000000     -4.956803120200000
O      -6.478116462100000     -3.353694739800000     -6.159333399300000
C      -6.416225415800000     -3.334032914000000     -3.667920033600000
C      -4.895613647200000     -3.195547250500000     -3.456847615200000
N      -4.437186734600000     -3.211117042300000     -2.043245663100000
C      -3.078633983800000     -3.554588513000000     -1.840801731300000
O      -2.267420354000000     -3.647827942300000     -2.768723793400000
N      -2.728023177400000     -3.778830387200000     -0.520242686300000
C      -3.566539980100000     -3.697295963900000      0.597986706100000
O      -3.111994422500000     -3.935167170500000      1.738711433700000
C      -4.934338825800000     -3.292387463900000      0.327285164700000
C      -5.891067768600000     -3.097321703700000      1.474844695500000
C      -5.292521020500000     -3.040942887100000     -0.959229594400000
H      -6.981498551500000      0.265216087500000     -4.658799594800000
H      -5.276614189200000      0.618350429500000     -4.251256255100000
H      -5.273581573300000     -1.150586942400000     -5.876979479700000
H      -4.347890726900000     -4.020540950100000     -3.923767695000000
H      -6.997460863100000     -2.869014932300000     -2.874273174400000
H      -6.723145247200000     -4.378254968500000     -3.766938212600000
H      -7.686891899800000     -2.160369342900000     -5.006831790300000
H      -6.270185008300000     -2.626438158500000     -1.171622670600000
H      -6.170693899700000     -4.062624761300000      1.916526352100000
H      -6.791623785100000     -2.576160362700000      1.139664812800000
H      -5.419008046500000     -2.508703225400000      2.266556998300000
H      -1.701611358000000     -3.961144510200000     -0.346794086500000
C      -3.397885638600000      0.052221270300000      2.701911833200000
C      -4.751164583600000      0.289143701300000      2.542887349200000
C      -5.356831411400000      0.183803651300000      1.272824171700000
C      -4.585190966300000     -0.081825150200000      0.165288238500000
C      -3.181113205600000     -0.267213840900000      0.274787842900000
C      -2.376951822000000     -0.467196090100000     -0.870655847200000
C      -1.022833409500000     -0.621269896800000     -0.692848307800000
N      -0.010071440100000     -0.788550966300000     -1.619944629900000
C       1.207467442900000     -0.919268175900000     -0.959177291000000
C       2.474682967800000     -1.105016365000000     -1.508068449200000
C       3.544868803500000     -1.228649675800000     -0.631811724600000
C       3.362031188600000     -1.146157795000000      0.764567274000000
C       2.108301288700000     -0.939411555800000      1.313980037200000
C       0.988483014900000     -0.833733953900000      0.454060380800000
C      -0.426346717100000     -0.641400324900000      0.615581127200000
N      -1.217615627000000     -0.503646995500000      1.716682942200000
C      -2.585975569800000     -0.249765896700000      1.585009959400000
C      -0.597660915300000     -0.615879813400000      3.057006288000000
H      -2.961081670300000      0.168847747900000      3.683785520100000
H      -5.364113677100000      0.602838195500000      3.382730227600000
H      -6.427239502800000      0.314100370800000      1.175417225900000
H      -5.043462431500000     -0.168628628000000     -0.812954628700000
H      -2.833394449600000     -0.496577988900000     -1.856053778200000
H      -0.156102036300000     -0.928478814100000     -2.610589910900000
H       2.634669187900000     -1.129255719900000     -2.579458812200000
H       4.538987248700000     -1.365418268400000     -1.041826863800000
H       4.224202739000000     -1.233029549000000      1.415560421300000
H       2.006003166000000     -0.865553865200000      2.387863109200000
H       0.160831901000000     -1.394030744300000      3.017129983800000
H      -0.176009618800000      0.351490816600000      3.344160853800000
H      -1.348247755300000     -0.928136495700000      3.777927229100000
H      -5.541781054900000     -3.619223990600000     -6.194282218600000
H       7.518217691900000     -8.454215528300001      3.586947306000000
H      -6.491069550100000      4.786002054600000      3.592808116500000
H       7.539533193800000      1.002778192000000     -6.257272408700000
