165

P      -7.124788718200000     25.484543547299999      6.367880977000000
O      -7.609367908200000     25.268157592500000      7.771132663800000
O      -7.981544713000000     25.767433586199999      5.180783383200000
O      -6.025249319700000     26.734411342400001      6.341530279100000
C      -4.998304486200000     26.836233499300000      7.334183405200000
C      -4.334949777100000     28.209820277100000      7.210055837700000
O      -3.697575663600000     28.351763264999999      5.889703133000000
C      -5.290952536400000     29.418229747800002      7.331908513900000
O      -4.521161273700000     30.518624008500002      7.909055947300000
C      -5.709284794800000     29.664529599000002      5.875634056900000
C      -4.457653141300000     29.268028467099999      5.077553462700000
P      -5.060280937300000     32.083156500800001      7.901238932900000
O      -4.353521678000000     32.780764784600002      9.017254584700000
O      -6.531798095700000     32.148022030200003      7.644806880200000
O      -4.397730899200000     32.635055434400002      6.445152142000000
C      -3.093834870200000     33.241908343799999      6.406334665100000
C      -3.209947214800000     34.750938187800003      6.169383222000000
O      -3.843138746200000     34.978472272600001      4.860925386100000
C      -4.080480994100000     35.498590664500000      7.207906964700000
O      -3.459383611800000     36.805737478099999      7.471139830800000
C      -5.431884263900000     35.639116284700002      6.489670544200000
C      -5.000174623400000     35.825971276700002      5.029160349200000
H      -3.825060418100000     30.132884948600001      4.861285200200000
H      -6.009400908000000     30.697118475000000      5.717746361100000
H      -6.544458559000000     29.002462868799999      5.645971515200000
H      -6.153441642500000     29.208134659900001      7.970458559500000
H      -3.537213463600000     28.297364072800001      7.956089607700000
H      -5.421149549300000     26.714836939200001      8.342906390600000
H      -4.713620022600000     36.863183425899997      4.826155112800000
H      -6.025776359400000     36.475400388600001      6.869267055000000
H      -5.971571069000000     34.700805945799999      6.643321439400000
H      -4.165882808300000     34.920805903300000      8.132478182100000
H      -3.805805935700000     37.111684966600002      8.325651698600000
H      -2.208470211400000     35.200667394600003      6.146392970800000
H      -2.538406353500000     32.793097795999998      5.571805501200000
H      -2.550388357500000     33.063246500600002      7.341964051200000
O      -5.562963772900000     36.514650298500001     -8.718578717200000
C      -4.385615763000000     37.268676450800001     -9.050918905000000
C      -3.448986192900000     37.470627356599998     -7.863972127600000
O      -4.168992271700000     38.097455780600001     -6.729744477500000
C      -2.762418496500000     36.227155776899998     -7.264207389800000
O      -1.596408276700000     35.931914461700003     -8.061371024700000
C      -2.459190997100000     36.709783947799998     -5.832942959000000
C      -3.705466519200000     37.539505932799997     -5.496389736400000
P      -0.641088487800000     34.622935377399997     -7.764093052300000
O       0.314400312200000     34.478732487400002     -8.894930335500000
O      -1.445665708000000     33.471957873000001     -7.225903440000000
O       0.189525653700000     35.282121541700000     -6.438565519000000
C       1.325396758700000     34.525379264800002     -6.026894786500000
C       1.413462866000000     34.499603926900001     -4.500439854400000
O       0.189738644200000     33.901221199500000     -3.936532370800000
C       2.583858418500000     33.627061796800000     -4.002235741900000
O       3.099037206200000     34.226956347500000     -2.774053917300000
C       1.910076194900000     32.272212266399997     -3.750997955800000
C       0.541802786900000     32.707963824700002     -3.206293872100000
H      -3.503400665100000     38.342979657500003     -4.781985860200000
H      -1.576304516600000     37.355923809600000     -5.865720789000000
H      -2.269774373800000     35.917270387800002     -5.113379638700000
H      -3.440184007200000     35.367797156000002     -7.263464796600000
H      -2.649266432600000     38.158831768500001     -8.179232769800000
H      -4.674557903000000     38.238685730999997     -9.471252627900000
H      -3.810980914300000     36.723403640800001     -9.815305296600000
H       0.608108539200000     32.925739614599998     -2.138851155200000
H       2.455218544700000     31.639312103900000     -3.043386984300000
H       1.795690982000000     31.726613860499999     -4.694020560100000
H       3.386194355900000     33.570413266999999     -4.749919178600000
H       1.492450687600000     35.516236525899998     -4.102316258400000
H       2.248971395200000     34.976691252300000     -6.428477742500000
H       1.272804660100000     33.494287823400001     -6.406478707900000
O      -6.112555654300000     24.189025806099998      6.016209063000000
H      -6.069946408200000     23.669734254700000      6.836724470600000
O      -7.269662831000000     37.893001485799999     -7.353708237700000
P      -7.087027962800000     37.260092123200003     -8.892775494900000
O      -6.933335342100000     38.396893921599997     -9.858116810800000
O      -8.065588487299999     36.148578184300000     -9.011239543200000
H       3.748550509100000     33.613134083699997     -2.389313178600000
H      -6.551023991200000     38.534358994999998     -7.205511652100000
H      -4.238647686700000     26.055976656199999      7.172054406000000
N      -4.783372098600000     36.720654328599998     -4.863750073100000
C      -6.082047134100000     35.705983142500003     -3.381058585900000
N      -6.578391710500000     35.353829607900003     -4.626738647700000
C      -5.786162282500000     35.971043247099999     -5.489934440000000
H      -5.877019774200000     35.953362040499997     -6.566913078100000
N      -5.781209380100000     35.855034279100003     -1.031731534500000
C      -4.701201923600000     36.637438331399999     -1.281210805900000
H      -4.173178311500000     36.978524065999999     -0.393086588900000
N      -4.221003115400000     37.026491567999997     -2.473641144200000
C      -4.958295864700000     36.542529925300002     -3.499466534700000
C      -6.499710242600000     35.373423894600002     -2.081930397900000
N      -7.563262713000000     34.548027415100002     -1.844222330100000
H      -8.188481273700001     34.392339422699997     -2.625829375900000
H      -7.931659626500000     34.475554855200002     -0.888170635400000
N      -4.763180870200000     28.689814165300000      3.742057661300000
C      -4.801375382100000     28.445280766000000      1.528377798400000
N      -5.884972342700000     27.721852504400001      2.015874626100000
C      -5.832031397400000     27.875842010900001      3.333030049700000
H      -6.504114514600000     27.399136064400000      4.039893003200000
N      -3.263606867700000     29.516389882999999      0.078653069000000
C      -2.642366293700000     30.002682717100001      1.183451465900000
H      -1.776573579800000     30.625721645599999      0.978907050800000
N      -2.990659830400000     29.818954639099999      2.460822711200000
C      -4.083877322500000     29.039926390000002      2.584713306900000
C      -4.359100877400000     28.730648944500000      0.223224109300000
N      -5.019296620300000     28.316539293999998     -0.913346084900000
H      -5.653945089700000     27.534934736699999     -0.795618715400000
H      -4.510429487700000     28.377343577500000     -1.800286009900000
N      -0.529534841300000     31.715090919800002     -3.339175115300000
C      -0.965597206900000     31.286907589999998     -4.591301173900000
H      -0.577761641000000     31.852891698200001     -5.435259304700000
C      -1.102884776900000     31.218118296800000     -2.149964819400000
O      -0.769106014300000     31.611026488299999     -1.023311166300000
N      -2.070977770200000     30.258613229500000     -2.345418236600000
H      -2.542166570900000     29.920784565000002     -1.458323323900000
C      -2.514471244900000     29.731389237599998     -3.567478762600000
O      -3.400375096100000     28.853427069599999     -3.570945470300000
C      -1.895138322900000     30.308976478500000     -4.759149351000000
C      -2.374772231800000     29.877324845699999     -6.122936174300000
H      -2.050636212100000     28.853098016800001     -6.347368725000000
H      -2.001798311200000     30.557061663500001     -6.894410631500000
H      -3.468514948000000     29.881892009900000     -6.151745941100000
N      -6.001691241500000     35.473476931500002      3.986372608300000
C      -7.123481336200000     34.705904306800001      4.248767603100000
H      -7.253310577000000     34.404762199399997      5.280130318300000
C      -5.679851155200000     35.851025676299997      2.656940846900000
O      -4.688591965600000     36.521747771299999      2.368846632800000
N      -6.572859709400000     35.395091094500003      1.694334494800000
H      -6.294835950200000     35.593395540300001      0.697139909100000
C      -7.710537151700000     34.614922654899999      1.905657483800000
O      -8.398537551300000     34.221605245900001      0.935831914000000
C      -7.998991780200000     34.290934633900001      3.292771727600000
C      -9.189062822700000     33.420121768100003      3.599918571000000
H     -10.123958795900000     33.905993566900001      3.295461669100000
H      -9.240677212600000     33.182514793499998      4.666322131100000
H      -9.125434646900001     32.481344078600003      3.037615657600000
C      -6.434475220400000     31.380022896600000      1.532739960600000
C      -6.214073986800000     31.541549015299999      2.885806290000000
C      -5.148375960900000     32.330571557500001      3.367990542800000
C      -4.287083496700000     32.926927739699998      2.477223827200000
C      -4.461496140300000     32.776720467600001      1.076004411900000
C      -3.562293706100000     33.358078222600000      0.154699003600000
C      -3.778860103000000     33.159971408799997     -1.186308757500000
N      -3.070389408000000     33.608455167199999     -2.286235508700000
C      -3.702757053300000     33.183283618200001     -3.451116905700000
C      -3.307587861900000     33.383888277700002     -4.770530805800000
C      -4.104445697000000     32.840241257000002     -5.771661536400000
C      -5.251522118800000     32.083020679000001     -5.460539020800000
C      -5.626719964900000     31.848339829699999     -4.147212269600000
C      -4.863402204100000     32.417569118000003     -3.102945908100000
C      -4.914649314500000     32.416850504599999     -1.666818569100000
N      -5.808151553700000     31.908144484899999     -0.774422063900000
C      -5.583615308700000     32.013018567800003      0.600851443200000
C      -7.060414829700000     31.285188385000001     -1.265463377500000
H      -7.238879834500000     30.736629521299999      1.205813687400000
H      -6.869483713500000     31.040900032600000      3.589116186800000
H      -5.006737599600000     32.464723190500003      4.434459354500000
H      -3.474000915500000     33.543552219600002      2.842400206200000
H      -2.723125793000000     33.944683264299996      0.513349432900000
H      -2.217220359100000     34.152154269000000     -2.258963836500000
H      -2.381976234500000     33.880765836400002     -5.030857183400000
H      -3.782862119600000     32.972989126000002     -6.798425521400000
H      -5.845203997700000     31.666172920400001     -6.267619628400000
H      -6.483493243400000     31.220614623100001     -3.942163008500000
H      -7.863616758900000     31.512070922200000     -0.566815593800000
H      -7.314630612000000     31.740170710899999     -2.217361180600000
H      -6.918859574700000     30.204976377099999     -1.364520927100000
