163

O       8.147360987700001     10.097034132399999     19.604652305100000
P       7.630214788600000     11.643840942500001     19.994808631500000
O       6.561919423500000     11.479345637400000     21.022211407400000
O       7.530500027700000     12.439275414200001     18.730404786499999
O       9.015572139900000     12.248284077599999     20.721085121700000
C       9.496142190800001     11.661086502800000     21.939350929600000
C      10.940727676600000     12.103515097800001     22.171083643999999
O      11.818249576400000     11.512734550199999     21.144118900999999
C      11.182320015200000     13.625154513700000     22.096891643100001
O      12.268886961000000     13.940485715399999     23.024765003399999
C      11.541492679799999     13.833331606000000     20.622149942400000
C      12.290507246000001     12.541095759099999     20.250240088599998
N      12.125235513400000     12.124908463600001     18.834000257500001
C      10.999462029700000     12.250670130400000     17.999077281400002
N      11.262282773400001     11.947253194700000     16.740437812400000
C      12.608834696400001     11.586643998400000     16.726552205200001
C      13.480688472000001     11.306639749200000     15.636922464400000
O      13.226841874000000     11.313692388900000     14.400075793499999
N      14.806367546500001     11.048649892900000     16.068469786400001
C      15.233368522799999     11.120265984800000     17.382747570399999
N      16.553494383499999     10.828277726600000     17.612016873200002
N      14.437693424300001     11.439679438900001     18.394456465000001
C      13.154645824499999     11.677627614900000     18.021273590400000
H       8.869720628600000     11.974006276300001     22.789615005500000
H       9.468925437199999     10.564721313700000     21.873765220599999
H      11.285982315600000     11.722624062000000     23.139230552499999
H      13.370322095400001     12.648454298100001     20.383777753299999
H      10.611555107599999     13.916407880000000     20.059646436600001
H      12.137023867000000     14.729348512100000     20.476911220700000
H      10.297735544900000     14.203101726200000     22.377811024300001
H      10.025906065699999     12.539993339200000     18.381132259699999
H      15.503056529000000     10.861264525799999     15.321542640600001
H      16.893034831700000     11.069593927300000     18.533494413500001
H      17.227090113199999     10.769307286700000     16.838809269500000
P      13.047173820699999     15.399698947699999     22.999841241100000
O      13.768416893600000     15.515540162600001     24.303274350999999
O      12.197136078200000     16.471802536799999     22.396455052400000
O      14.196765600899999     15.104832106500000     21.795230800100001
C      15.414807052300000     14.416138713300001     22.126146004199999
C      16.611218358900000     15.367524152100000     22.093129982299999
O      16.773875031500001     15.941016947100000     20.744943311299998
C      16.543960980500000     16.584250375800000     23.039584431700000
O      17.886690947799998     16.982496087200001     23.480276408600002
C      15.876108474700001     17.664189746700000     22.168178801300002
C      16.395634694599998     17.349993158600000     20.752692112900000
N      15.455206234100000     17.644159678000001     19.667072875399999
C      14.056658798699999     17.837480810599999     19.686879569900000
N      13.561665098400001     18.045037846700001     18.485306643000001
C      14.649627883899999     17.960280691900000     17.615868285700000
C      14.697718762099999     17.908803333500000     16.187045146100001
O      13.763907740700001     18.022495241400001     15.358671676400000
N      16.014867815599999     17.645796657199998     15.717840532900000
C      17.124299352800001     17.464043203300001     16.518570131899999
N      18.315875188500002     17.254575019299999     15.879547129600001
N      17.079523312199999     17.495153181799999     17.848969177699999
C      15.831143407300001     17.709975486699999     18.332195871400000
H      15.348516046200000     13.953630687900000     23.118760513100000
H      15.572484851600001     13.629577747500001     21.374797510699999
H      17.520883396399999     14.788283684300000     22.302962647800001
H      17.302338215399999     17.916348487499999     20.508407597600002
H      14.794402467699999     17.545658389100002     22.234445796999999
H      16.150455061300001     18.670052524100001     22.495359791999999
H      15.973435686600000     16.374294605500001     23.944409439699999
H      13.476208217200000     17.744939211799998     20.597854197899998
H      16.100804997000001     17.511477845800002     14.686004219000001
H      19.079204232900000     16.966956631399999     16.477686408899999
H      18.332921193499999     16.965987626400000     14.887504075300001
O      18.524651549900000     20.653929305999998      8.228984542099999
P      18.118968508399998     19.518979390199998      7.062054843000000
O      18.728671359900002     19.982300592800001      5.775219445800000
O      16.688439917699998     19.138643906799999      7.266481376800000
O      18.943001094200000     18.187555393800000      7.642524632300000
C      20.344493376799999     18.216050012400000      7.947638618900000
C      20.659463042599999     17.133808396399999      8.990611550200001
O      19.942485263500000     17.435126053499999     10.234691783500001
C      20.229346526800001     15.699211471300000      8.612066542999999
O      21.108547758299999     14.767030825399999      9.325394039200001
C      18.790590429200002     15.665436487799999      9.124598212700000
C      18.937295236499999     16.410887160800002     10.457038296100000
N      17.690540188200000     17.016129876000001     10.980353288400000
C      17.427320360000000     16.913271253300000     12.377970766500001
O      18.308961272299999     16.471480343300001     13.149660715200000
N      16.191698278600001     17.278055215900000     12.832264082500000
C      15.290628097800001     17.833799130100001     12.000649372900000
N      14.061866840600000     18.102456654400001     12.525801049400000
C      15.602612357400000     18.105944549699998     10.636085199000000
C      16.809061539300000     17.676905252099999     10.164778870799999
H      20.941655251899999     18.046064476100000      7.037225602100000
H      20.622029765400001     19.189054378800002      8.374278929400001
H      21.733873896500000     17.150509836600001      9.212866707600000
H      19.280502363099998     15.734606806800000     11.237296196499999
H      18.155927499899999     16.201164467900000      8.420006409899999
H      18.428198134900001     14.652804171800000      9.247005386700000
H      20.303137095099999     15.501449212300001      7.537894383400000
H      17.103704440700000     17.861733106199999      9.136649121400000
H      14.926686094100001     18.629611205000000      9.970463108600001
H      13.938467973000000     18.065819515299999     13.554962296699999
H      13.432705906200001     18.686652907900001     11.991064449800000
P      20.578931835900001     13.266203015100000      9.801849817100001
O      22.063966590100001     12.650473123999999     10.217487426000000
O      20.067471580599999     12.472826672800000      8.644942870300000
O      19.758410820300000     13.392031813599999     11.060111771900001
C      22.555567326900000     12.789429310399999     11.569065640900000
C      22.319090724500001     11.530855072100000     12.430404714100000
O      21.144119933999999     11.695286268900000     13.279488052400000
C      22.059425312500000     10.227381994200000     11.651287305900000
O      23.275287781700001      9.560704727799999     11.226072649800001
C      21.290813806700001      9.376798454299999     12.667848389000000
C      20.508277214100001     10.421525546400000     13.508547465600000
N      19.062350250400002     10.520942973900000     13.175653597800000
C      18.094617676199999     10.576584333400000     14.236826667800001
O      18.482719669100000     10.602914498100001     15.425830026900000
N      16.772320190500000     10.607609245300001     13.898766823900001
C      16.382632895499999     10.652168236300000     12.610216264100000
N      15.054200031800001     10.712807073500000     12.357619847500001
C      17.334037982000002     10.666353714300000     11.541616351600000
C      18.652514071799999     10.639060310200000     11.870445320300000
H      23.636074335200000     12.956805649700000     11.481197939399999
H      22.099027123399999     13.647582705700000     12.072473842200001
H      23.198553551200000     11.375500049799999     13.077661184100000
H      20.525164483800001     10.196491241100000     14.574997081199999
H      20.639336053400001      8.629071552899999     12.210177552599999
H      22.010871076099999      8.859175677200000     13.311254687300000
H      21.448375056900002     10.451459419600001     10.773409260399999
H      19.420701943299999     10.748716662900000     11.118611972300000
H      17.033139013000000     10.789277171600000     10.509713939899999
H      14.385832685700001     10.896539037300000     13.135647113299999
H      14.762181629000001     10.959399807800001     11.420302688700000
C      13.851668661200000     14.132311737800000     10.805116599600000
C      14.489276559100000     13.897859033300000      9.596531552800000
C      15.873620226500000     13.625807329800001      9.541693723500000
C      16.613387225800000     13.626819894800001     10.704870891700001
C      16.000878244900001     13.875244493000000     11.959579370800000
C      16.784234180399999     13.860840787800001     13.141100374100001
C      16.142139907299999     14.089725856399999     14.330867338299999
N      16.625599489100001     14.124868171299999     15.625049845300000
C      15.579615369500001     14.384347009300001     16.510024639899999
C      15.616147925400000     14.516526139300000     17.895062389700001
C      14.416594332100001     14.793644201999999     18.542592675600002
C      13.214282865400000     14.968680334300000     17.829580362900000
C      13.168167979400000     14.833629589699999     16.456665934499998
C      14.361882080000001     14.518908147599999     15.764713691700001
C      14.722460814800000     14.316470079300000     14.394666803700000
N      13.970975927800000     14.276113276400000     13.260949208300000
C      14.582686325999999     14.102886901700000     12.016400368199999
C      12.495961489800001     14.333711148500001     13.415844433900000
H      12.795189745800000     14.363622221800000     10.802346995600001
H      13.910718283300000     13.943330865700000      8.678270063499999
H      16.360923634700001     13.445344136299999      8.588769455700000
H      17.684595722000001     13.437848781200000     10.703795634900001
H      17.854043779000001     13.690450538000000     13.067927601199999
H      17.602284577599999     14.047533181600000     15.873627364600001
H      16.542112495000001     14.452893975100000     18.454750948600001
H      14.410291548900000     14.925625335299999     19.616876895299999
H      12.314581412800001     15.237604269500000     18.364591943200001
H      12.231972840499999     14.980628851500001     15.941013982399999
H      12.208233073100001     13.634637604600000     14.202103358000000
H      12.194846843500001     15.356238607000000     13.657161722600000
H      12.012246890800000     14.010653578900000     12.500020580299999
H       8.677450574100000     10.176705646700000     18.791754338200001
H      23.566318060899999     10.017026330500000     10.417088356800001
H      19.084134929200001     21.307550686900001      7.777089158000000
H      18.443995288200000     17.066881256900000     22.686214279400001
