165

P      -7.103791780000000     25.426228572500001      6.105540039200000
O      -7.615405352400000     25.101280291199998      7.476456920400000
O      -7.940985737600000     25.689405476899999      4.898503870100000
O      -6.111055529500000     26.765145068700001      6.183988076100000
C      -5.046014516100000     26.824170157800001      7.146844708900000
C      -4.332953028000000     28.170459781600002      7.032460303900000
O      -3.720659166800000     28.304933259300000      5.699586460700000
C      -5.227091782300000     29.416859245200001      7.204714229500000
O      -4.393742428800000     30.449333814199999      7.813578339800000
C      -5.639965196200000     29.734632202499998      5.762103057500000
C      -4.382802847300000     29.356913163900000      4.965839046000000
P      -4.883438424700000     32.027951404699998      7.885281896100000
O      -4.103663812500000     32.680488708399999      8.979596986800001
O      -6.367280654800000     32.120113547099997      7.726467879300000
O      -4.280688815300000     32.600436333499999      6.408977754400000
C      -3.073262235000000     33.378447401000003      6.357713464700000
C      -3.372765522500000     34.874444465300002      6.210098710300000
O      -4.057184986900000     35.101125366700003      4.929046220000000
C      -4.285089047300000     35.479329389699998      7.297030672400000
O      -3.807073285300000     36.846481934600000      7.566515223700000
C      -5.666620296800000     35.498820041199998      6.623143834400000
C      -5.288597000200000     35.813371575399998      5.169319289500000
H      -3.705807507300000     30.205736373000001      4.869368441900000
H      -5.924644960200000     30.776957523899998      5.645332580000000
H      -6.487395203900000     29.098234408000000      5.504736713500000
H      -6.094939035900000     29.229208008899999      7.843090958100000
H      -3.519938279100000     28.206139170600000      7.766858748000000
H      -5.442399248900000     26.697708208100000      8.165670754700001
H      -5.114252999700000     36.886517639399997      5.018549813000000
H      -6.336092576700000     36.243680379399997      7.062522594000000
H      -6.106202555000000     34.500293084200003      6.716788032500000
H      -4.269041053000000     34.876433096100001      8.208769791200000
H      -4.182880268100000     37.109427767800000      8.423027796400000
H      -2.424929785100000     35.429588175699998      6.190400603700000
H      -2.506451764700000     33.047634525399999      5.477377037900000
H      -2.469623011600000     33.221783669300002      7.259930820200000
O      -5.606422699000000     36.723094712200002     -8.487671300700001
C      -4.543194580900000     37.667364882699999     -8.710451233700001
C      -3.608118382800000     37.781615346899997     -7.517346711700000
O      -4.352271760000000     38.185456405300002     -6.303668404900000
C      -2.830293667500000     36.518203856400000     -7.111042491000000
O      -1.642350886200000     36.435521934500002     -7.923250744000000
C      -2.542017152700000     36.794103461699997     -5.623964560200000
C      -3.806830243900000     37.524115402299998     -5.157456134100000
P      -0.814362089400000     35.012734204099999     -8.032251959600000
O       0.273452628300000     35.190934368999997     -9.032585161600000
O      -1.759565348100000     33.851820054699999     -8.023165557900001
O      -0.105929001100000     35.068500210099998     -6.481866360200000
C       1.060292363800000     34.260221883299998     -6.358418717300000
C       1.530552126100000     34.284142161100000     -4.907730500700000
O       0.515593478600000     33.696925921099997     -4.017597960100000
C       2.798244975400000     33.443224711200003     -4.686750284600000
O       3.525853148500000     34.024090024700001     -3.562779081100000
C       2.225071712600000     32.059509248399998     -4.343649300600000
C       0.970357485200000     32.418068208500003     -3.525067473600000
H      -3.616026694100000     38.252085635400000     -4.368088076300000
H      -1.678112757000000     37.464156748199997     -5.560092273200000
H      -2.327922600500000     35.908713946600002     -5.034074180700000
H      -3.438537956000000     35.619067643199998     -7.250949807600000
H      -2.868767634700000     38.566970245599997     -7.740312011200000
H      -4.960015336800000     38.648232579499997     -8.965621345500001
H      -3.932442723900000     37.327640998299998     -9.560419523700000
H       1.201623401300000     32.506883300799998     -2.459112039600000
H       2.919547224900000     31.432082238900001     -3.776240401300000
H       1.954819751800000     31.529403624400000     -5.262272921700000
H       3.436125654600000     33.429057142600001     -5.579753370500000
H       1.682368440500000     35.316433094499999     -4.578819556100000
H       1.861670076600000     34.641462326700001     -7.011790957700000
H       0.850227672200000     33.220124405299998     -6.663716433300000
O      -5.981478821500000     24.235347744599999      5.724370097400000
H      -5.915360619300000     23.681003985600000      6.519955803800000
O      -7.552053713100000     37.695097530200002     -7.101050876400000
P      -7.215590186300000     37.223786855699998     -8.673797087100001
O      -7.229509764900000     38.435560021100002     -9.554010160000001
O      -7.998650291300000     35.977175072599998     -8.889807122400001
H       4.287289479300000     33.450402758000003     -3.369403048700000
H      -7.009921982200000     38.477765025799997     -6.895655287700000
H      -4.321108992600000     26.021169753100001      6.947946199100000
N      -6.266121549000000     35.404552567200000      4.150214956700000
C      -7.196532983300000     35.002360052999997      2.169055802600000
N      -7.988471782100000     34.350579863299998      3.109452759700000
C      -7.395667646400000     34.594338473599997      4.267144460400000
H      -7.714041508100000     34.204404836400002      5.223621242900000
N      -6.220937634400000     35.687496588499997      0.120408200400000
C      -5.272595146900000     36.323679129399999      0.844839375400000
H      -4.520959432100000     36.841176933600003      0.251753942400000
N      -5.146059124700000     36.362890297299998      2.179263274900000
C      -6.125653978300000     35.666597119899997      2.791356868400000
C      -7.214808861300000     35.014290889400002      0.754269824800000
N      -8.153428091700000     34.383408677500000      0.002791350700000
H      -8.808441538500000     33.778102787800002      0.479363908500000
H      -8.012191421300001     34.297738923899999     -1.016608668100000
N      -0.113636637500000     31.443250538899999     -3.604682497700000
C      -1.873013082200000     30.208506280200002     -3.040802657300000
N      -1.783979979900000     30.147815795400000     -4.429864792700000
C      -0.746661799100000     30.904057487300001     -4.731360594700000
H      -0.425431029400000     31.149967715700001     -5.734228482000000
N      -2.610951639500000     29.985363471399999     -0.803242971100000
C      -1.562043231500000     30.741380886200002     -0.420625782700000
H      -1.491786125200000     30.912205683500002      0.651559046700000
N      -0.635964101800000     31.306396579899999     -1.211403299300000
C      -0.849364342900000     31.008102990400001     -2.508362391600000
C      -2.813016141900000     29.697443643300002     -2.116466668300000
N      -3.899770788600000     28.968790303300000     -2.458669907800000
H      -4.106462075700000     28.844169290200000     -3.440494901000000
H      -4.567204953400000     28.669155767199999     -1.729074310400000
N      -4.648762058000000     28.909310649799998      3.569777369100000
C      -5.684485444100000     28.031171585300001      3.285170475300000
H      -6.158448208800000     27.580268888900001      4.150627226400000
C      -3.832990724700000     29.416255538700000      2.543562720100000
O      -2.846754290200000     30.138880775699999      2.724752953200000
N      -4.248252246200000     29.060440030399999      1.268283723100000
H      -3.662994633300000     29.439589414299999      0.488278236300000
C      -5.375591874100000     28.329075763399999      0.915314470300000
O      -5.690042179200000     28.225566349800001     -0.303446912400000
C      -6.094026724900000     27.725966680399999      2.018896968400000
C      -7.249206536500000     26.792170000500001      1.750133348600000
H      -8.065589997600000     27.324561883000001      1.243857027400000
H      -7.621174815300000     26.357681225899999      2.683465130900000
H      -6.938786177300000     25.985125679399999      1.074938327900000
N      -4.833934788300000     36.581528822700001     -4.565964683500000
C      -5.753218886400000     35.923873292600000     -5.364310857400000
H      -5.682667689500000     36.140894542700003     -6.422777447200000
C      -4.800406152600000     36.388857216300003     -3.182195779500000
O      -3.940461253600000     36.894035102499998     -2.438655841800000
N      -5.809691179900000     35.572201233100003     -2.697325065600000
H      -5.902776409800000     35.541715024799998     -1.657057878400000
C      -6.771706302800000     34.883383244100003     -3.446619369000000
O      -7.601499756100000     34.146725683299998     -2.845681626800000
C      -6.708994402100000     35.081662948500004     -4.874712457500000
C      -7.703213024200000     34.388583616299996     -5.770323029300000
H      -7.509976890000000     33.307534633200000     -5.790391663800000
H      -7.670981451800000     34.780823889700002     -6.791117544400000
H      -8.718120756799999     34.524857820500003     -5.380001030400000
C      -6.434532054100000     31.443843278100001      1.375918298000000
C      -6.281776556200000     31.585421515200000      2.743225131700000
C      -5.249195764500000     32.375910739100000      3.290232799400000
C      -4.365165633800000     33.009146550200001      2.446357905600000
C      -4.466477891800000     32.876501808900002      1.034714999900000
C      -3.541038126400000     33.499314996000003      0.165559641200000
C      -3.660775683600000     33.287384403499999     -1.188754062500000
N      -2.857561503300000     33.695030532499999     -2.239871984200000
C      -3.379987215000000     33.218243284899998     -3.439491386900000
C      -2.879212653400000     33.380005473399997     -4.731781051700000
C      -3.590363650100000     32.806123933000002     -5.782485075800000
C      -4.751288776500000     32.042217605700003     -5.540099899200000
C      -5.233456823700000     31.848084069700000     -4.252703567300000
C      -4.563947115100000     32.456541227599999     -3.164994829200000
C      -4.738721122300000     32.506302630500002     -1.736411152500000
N      -5.676580374500000     31.978719134700000     -0.898945294100000
C      -5.541309244400000     32.088000192599999      0.491523927300000
C      -6.864816094200000     31.300870945700002     -1.478826352100000
H      -7.208352711300000     30.788840179400001      1.000805652400000
H      -6.964460477700000     31.064443755300001      3.404930793900000
H      -5.139214031300000     32.486758775100000      4.362956343600000
H      -3.584214246900000     33.637212624800000      2.859282483000000
H      -2.741570023800000     34.107967395999999      0.575533063600000
H      -2.088107305100000     34.347724114000002     -2.168029599600000
H      -1.949403726100000     33.904629622599998     -4.923276392800000
H      -3.204732858500000     32.955125787699998     -6.788303325300000
H      -5.279507026900000     31.601909345999999     -6.379628401300000
H      -6.120291835500000     31.248456497599999     -4.097246180700000
H      -7.714828730400000     31.457926536399999     -0.818596003600000
H      -7.100950312900000     31.782299061200000     -2.423553151400000
H      -6.666548474500000     30.230868532500001     -1.581947743300000
